Info: SIMULATION PARAMETERS:
Info: TIMESTEP               1
Info: NUMBER OF STEPS        100000
Info: STEPS PER CYCLE        20
Info: PERIODIC CELL BASIS 1  38.475 0 0
Info: PERIODIC CELL BASIS 2  0 38.475 0
Info: PERIODIC CELL BASIS 3  0 0 48.0937
Info: PERIODIC CELL CENTER   0 0 0
Info: WRAPPING ALL CLUSTERS AROUND PERIODIC BOUNDARIES ON OUTPUT.
Info: WRAPPING TO IMAGE NEAREST TO PERIODIC CELL CENTER.
Info: FIRST LDB TIMESTEP     100
Info: HOM BACKGROUND SCALING 1
Info: PME BACKGROUND SCALING 1
Info: MAX SELF PARTITIONS    50
Info: MAX PAIR PARTITIONS    20
Info: SELF PARTITION ATOMS   125
Info: PAIR PARTITION ATOMS   200
Info: PAIR2 PARTITION ATOMS  400
Info: MIN ATOMS PER PATCH    100
Info: VELOCITY FILE          ./eq03.dsDNA6_solv.restart.vel
Info: CENTER OF MASS MOVING INITIALLY? NO
Info: DIELECTRIC             1
Info: EXCLUDE                SCALED ONE-FOUR
Info: 1-4 SCALE FACTOR       1
Info: DCD FILENAME           ./eq04.shear.8CPU.dcd
Info: DCD FREQUENCY          100
Info: DCD FIRST STEP         100
Info: DCD FILE WILL CONTAIN UNIT CELL DATA
Info: XST FILENAME           ./eq04.shear.8CPU.xst
Info: XST FREQUENCY          100
Info: NO VELOCITY DCD OUTPUT
Info: OUTPUT FILENAME        ./eq04.shear.8CPU
Info: BINARY OUTPUT FILES WILL BE USED
Info: RESTART FILENAME       ./eq04.shear.8CPU.restart
Info: RESTART FREQUENCY      100
Info: BINARY RESTART FILES WILL BE USED
Info: SWITCHING ACTIVE
Info: SWITCHING ON           10
Info: SWITCHING OFF          12
Info: PAIRLIST DISTANCE      14
Info: PAIRLIST SHRINK RATE   0.01
Info: PAIRLIST GROW RATE     0.01
Info: PAIRLIST TRIGGER       0.3
Info: PAIRLISTS PER CYCLE    2
Info: PAIRLISTS ENABLED
Info: MARGIN                 3
Info: HYDROGEN GROUP CUTOFF  2.5
Info: PATCH DIMENSION        19.5
Info: ENERGY OUTPUT STEPS    100
Info: CROSSTERM ENERGY INCLUDED IN DIHEDRAL
Info: TIMING OUTPUT STEPS    100
Info: TCL BOUNDARY FORCES ACTIVE
Info: TCL BOUNDARY FORCES SCRIPT
Info: TCL BOUNDARY FORCES ARGS
Info: LANGEVIN DYNAMICS ACTIVE
Info: LANGEVIN TEMPERATURE   295
Info: LANGEVIN DAMPING COEFFICIENT IS 10 INVERSE PS
Info: LANGEVIN DYNAMICS NOT APPLIED TO HYDROGENS
Info: PARTICLE MESH EWALD (PME) ACTIVE
Info: PME TOLERANCE               1e-06
Info: PME EWALD COEFFICIENT       0.257952
Info: PME INTERPOLATION ORDER     4
Info: PME GRID DIMENSIONS         32 32 40
Info: PME MAXIMUM GRID SPACING    1.5
Info: FULL ELECTROSTATIC EVALUATION FREQUENCY      4
Info: USING VERLET I (r-RESPA) MTS SCHEME.
Info: C1 SPLITTING OF LONG RANGE ELECTROSTATICS
Info: PLACING ATOMS IN PATCHES BY HYDROGEN GROUPS
Info: NONBONDED FORCES EVALUATED EVERY 2 STEPS
Info: RANDOM NUMBER SEED     1163185943
Info: USE HYDROGEN BONDS?    NO
Info: COORDINATE PDB         ./dsDNA6_solv.pdb
Info: STRUCTURE FILE         ./dsDNA6_solv.psf
Info: PARAMETER file: CHARMM format!
Info: PARAMETERS             ./cornell.prm
Info: USING ARITHMETIC MEAN TO COMBINE L-J SIGMA PARAMETERS
Info: BINARY COORDINATES     ./eq03.dsDNA6_solv.restart.coor
Info: SUMMARY OF PARAMETERS:
Info: 85 BONDS
Info: 193 ANGLES
Info: 81 DIHEDRAL
Info: 31 IMPROPER
Info: 0 CROSSTERM
Info: 47 VDW
Info: 0 VDW_PAIRS
Info: STRUCTURE SUMMARY:
Info: 7229 ATOMS
Info: 4974 BONDS
Info: 3021 ANGLES
Info: 1076 DIHEDRALS
Info: 68 IMPROPERS
Info: 0 CROSSTERMS
Info: 0 EXCLUSIONS
Info: 21687 DEGREES OF FREEDOM
Info: 2523 HYDROGEN GROUPS
Info: TOTAL MASS = 44701.6 amu
Info: TOTAL CHARGE = -10 e
Info: REMOVING COM VELOCITY 0.0452631 0.0402173 -0.0327026
Info: NONBONDED TABLE R-SQUARED SPACING: 0.0625
Info: NONBONDED TABLE SIZE: 769 POINTS
TCL: Step 0, total torque applied: 0.
TCL: Step 0, total torque applied: 0.
ETITLE: TS BOND ANGLE DIHED IMPRP ELECT VDW BOUNDARY MISC KINETIC TOTAL TEMP TOTAL2 TOTAL3 TEMPAVG PRESSURE GPRESSURE VOLUME PRESSAVG GPRESSAVG
ENERGY: 0 2179.7231 1250.7604 209.9041 5.6556 -31182.2108 3954.5354 0.0000 0.0000 6471.0207 -17110.6116 300.3058 -16988.7129 -16988.7129 300.3058 3925.6204 -197.3022 71194.3365 3925.6204 -197.3022
TCL: Step 100, total torque applied: 3709010.60876
TCL: Step 100, total torque applied: 3702815.10606
Info: Adjusted background load on 6 nodes.
Info: 630 of 630 computes have background load > 2.16708
Info: 630 of 630 computes have background load > 2.60049
Info: 630 of 630 computes have background load > 3.03391
Info: 630 of 630 computes have background load > 3.46732
Info: 630 of 630 computes have background load > 3.90074
ETITLE: TS BOND ANGLE DIHED IMPRP ELECT VDW BOUNDARY MISC KINETIC TOTAL TEMP TOTAL2 TOTAL3 TEMPAVG PRESSURE GPRESSURE VOLUME PRESSAVG GPRESSAVG
ENERGY: 100 2234.9443 1234.2062 224.7365 6.1698 -30951.5152 3882.0199 0.0000 0.0000 7486.8224 -15882.6160 347.4469 -15757.2315 -15769.6135 319.7690 4642.2824 777.1365 71194.3365 417.2011 406.1743
TCL: Step 200, total torque applied: 3694111.36658
TCL: Step 200, total torque applied: 3707407.40459
ETITLE: TS BOND ANGLE DIHED IMPRP ELECT VDW BOUNDARY MISC KINETIC TOTAL TEMP TOTAL2 TOTAL3 TEMPAVG PRESSURE GPRESSURE VOLUME PRESSAVG GPRESSAVG
ENERGY: 200 2168.0923 1184.8973 212.2131 7.2488 -30697.3754 3853.6572 0.0000 0.0000 8572.7329 -14698.5339 397.8416 -14575.2588 -14568.6747 374.5456 5208.7971 1565.3364 71194.3365 1483.8156 1482.6397
TCL: Step 300, total torque applied: 3713968.9078
TCL: Step 300, total torque applied: 3671522.65651
ETITLE: TS BOND ANGLE DIHED IMPRP ELECT VDW BOUNDARY MISC KINETIC TOTAL TEMP TOTAL2 TOTAL3 TEMPAVG PRESSURE GPRESSURE VOLUME PRESSAVG GPRESSAVG
ENERGY: 300 2201.7774 1225.0288 214.6759 6.2432 -30348.2973 3857.5129 0.0000 0.0000 9035.2869 -13807.7723 419.3077 -13682.7257 -13675.9713 407.5067 6187.8351 2702.1394 71194.3365 2149.4474 2145.4534
TCL: Step 400, total torque applied: 3719330.53216
TCL: Step 400, total torque applied: 3672439.14172
ETITLE: TS BOND ANGLE DIHED IMPRP ELECT VDW BOUNDARY MISC KINETIC TOTAL TEMP TOTAL2 TOTAL3 TEMPAVG PRESSURE GPRESSURE VOLUME PRESSAVG GPRESSAVG
ENERGY: 400 2279.8570 1174.5830 226.5306 6.5066 -30116.7102 3750.5077 0.0000 0.0000 9241.6656 -13437.0598 428.8853 -13309.1570 -13311.6076 421.3277 4680.1045 2253.0194 71194.3365 2711.3872 2716.2296
TCL: Step 500, total torque applied: 3768990.52968
TCL: Step 500, total torque applied: 3678412.68438
ETITLE: TS BOND ANGLE DIHED IMPRP ELECT VDW BOUNDARY MISC KINETIC TOTAL TEMP TOTAL2 TOTAL3 TEMPAVG PRESSURE GPRESSURE VOLUME PRESSAVG GPRESSAVG
ENERGY: 500 2283.7713 1168.8095 227.9062 6.2938 -30104.9580 3853.5983 0.0000 0.0000 9297.9874 -13266.5915 431.4991 -13140.2180 -13134.1313 429.3315 4458.4483 2682.9393 71194.3365 2828.5215 2845.6962
TCL: Step 600, total torque applied: 3702723.02276
TCL: Step 600, total torque applied: 3787997.71438
ETITLE: TS BOND ANGLE DIHED IMPRP ELECT VDW BOUNDARY MISC KINETIC TOTAL TEMP TOTAL2 TOTAL3 TEMPAVG PRESSURE GPRESSURE VOLUME PRESSAVG GPRESSAVG
ENERGY: 600 2259.5736 1229.5915 222.2407 5.8676 -30121.4319 3792.8909 0.0000 0.0000 9550.5677 -13060.6998 443.2208 -12935.7279 -12925.3257 437.3062 4890.4309 2637.4007 71194.3365 2963.4443 2973.9314
TCL: Step 700, total torque applied: 3766510.67594
TCL: Step 700, total torque applied: 3694636.7015
ETITLE: TS BOND ANGLE DIHED IMPRP ELECT VDW BOUNDARY MISC KINETIC TOTAL TEMP TOTAL2 TOTAL3 TEMPAVG PRESSURE GPRESSURE VOLUME PRESSAVG GPRESSAVG
ENERGY: 700 2249.5008 1215.9202 212.0567 5.0161 -29730.1161 3693.9462 0.0000 0.0000 9405.4819 -12948.1943 436.4876 -12815.8814 -12832.3549 438.9882 5600.5147 2669.0073 71194.3365 2986.2049 2984.2053
TCL: Step 800, total torque applied: 3757806.28316
TCL: Step 800, total torque applied: 3680642.41882
ETITLE: TS BOND ANGLE DIHED IMPRP ELECT VDW BOUNDARY MISC KINETIC TOTAL TEMP TOTAL2 TOTAL3 TEMPAVG PRESSURE GPRESSURE VOLUME PRESSAVG GPRESSAVG
ENERGY: 800 2185.3606 1221.7544 217.6371 6.6971 -29666.9697 3726.7200 0.0000 0.0000 9571.4084 -12737.3921 444.1879 -12608.5054 -12610.5031 442.6099 6444.6548 2881.6683 71194.3365 2960.5352 2950.3912
TCL: Step 900, total torque applied: 3757676.32193
TCL: Step 900, total torque applied: 3696552.11449
ETITLE: TS BOND ANGLE DIHED IMPRP ELECT VDW BOUNDARY MISC KINETIC TOTAL TEMP TOTAL2 TOTAL3 TEMPAVG PRESSURE GPRESSURE VOLUME PRESSAVG GPRESSAVG
ENERGY: 900 2119.7637 1176.4674 238.2410 8.6330 -29684.3070 3783.2294 0.0000 0.0000 9698.6114 -12659.3612 450.0911 -12530.8279 -12533.2033 448.1616 7625.8574 3223.2678 71194.3365 2958.9696 2937.8874
TCL: Step 1000, total torque applied: 3757357.04542
TCL: Step 1000, total torque applied: 3714003.56521
ETITLE: TS BOND ANGLE DIHED IMPRP ELECT VDW BOUNDARY MISC KINETIC TOTAL TEMP TOTAL2 TOTAL3 TEMPAVG PRESSURE GPRESSURE VOLUME PRESSAVG GPRESSAVG
ENERGY: 1000 2162.8166 1216.4636 226.8709 4.4510 -29491.8181 3731.2530 0.0000 0.0000 9585.2527 -12564.7102 444.8304 -12436.1519 -12438.4641 447.5335 7520.9169 3522.9285 71194.3365 3347.0975 3332.7865
TCL: Step 1100, total torque applied: 3752443.90362
TCL: Step 1100, total torque applied: 3688348.56571
ETITLE: TS BOND ANGLE DIHED IMPRP ELECT VDW BOUNDARY MISC KINETIC TOTAL TEMP TOTAL2 TOTAL3 TEMPAVG PRESSURE GPRESSURE VOLUME PRESSAVG GPRESSAVG
ENERGY: 1100 2156.3589 1189.7975 226.7462 5.2801 -29574.5310 3710.2975 0.0000 0.0000 9926.9848 -12359.0660 460.6894 -12231.7235 -12229.3188 455.1415 6899.3001 3108.1141 71194.3365 3043.6158 3036.3988
TCL: Step 1200, total torque applied: 3766362.50385
TCL: Step 1200, total torque applied: 3716093.64635
ETITLE: TS BOND ANGLE DIHED IMPRP ELECT VDW BOUNDARY MISC KINETIC TOTAL TEMP TOTAL2 TOTAL3 TEMPAVG PRESSURE GPRESSURE VOLUME PRESSAVG GPRESSAVG
ENERGY: 1200 2228.7338 1248.3426 220.0131 5.3177 -29272.2438 3579.8036 0.0000 0.0000 9679.3504 -12310.6825 449.1973 -12180.9579 -12186.9340 451.4635 6123.4551 3212.1068 71194.3365 3010.9330 3006.3925
TCL: Step 1300, total torque applied: 3765147.73388
TCL: Step 1300, total torque applied: 3693784.56344
ETITLE: TS BOND ANGLE DIHED IMPRP ELECT VDW BOUNDARY MISC KINETIC TOTAL TEMP TOTAL2 TOTAL3 TEMPAVG PRESSURE GPRESSURE VOLUME PRESSAVG GPRESSAVG
ENERGY: 1300 2290.6684 1191.1543 215.6883 5.5329 -29315.2062 3651.8471 0.0000 0.0000 9636.7684 -12323.5467 447.2211 -12197.9889 -12188.0145 452.9327 5847.1604 3421.0845 71194.3365 3234.5877 3244.5816
TCL: Step 1400, total torque applied: 3790947.13537
TCL: Step 1400, total torque applied: 3662072.61193
ETITLE: TS BOND ANGLE DIHED IMPRP ELECT VDW BOUNDARY MISC KINETIC TOTAL TEMP TOTAL2 TOTAL3 TEMPAVG PRESSURE GPRESSURE VOLUME PRESSAVG GPRESSAVG
ENERGY: 1400 2243.3135 1212.5647 224.3008 6.0699 -29530.2923 3734.1330 0.0000 0.0000 9863.4202 -12246.4903 457.7396 -12122.0273 -12106.9482 452.5712 5939.0079 3425.7301 71194.3365 3486.1582 3488.4710
TCL: Step 1500, total torque applied: 3776803.15841
TCL: Step 1500, total torque applied: 3648226.4477
ETITLE: TS BOND ANGLE DIHED IMPRP ELECT VDW BOUNDARY MISC KINETIC TOTAL TEMP TOTAL2 TOTAL3 TEMPAVG PRESSURE GPRESSURE VOLUME PRESSAVG GPRESSAVG
ENERGY: 1500 2220.7450 1149.3981 228.3947 5.6137 -29493.4274 3741.7423 0.0000 0.0000 9930.4836 -12217.0502 460.8518 -12090.2210 -12086.6938 458.3296 6392.3138 3384.6073 71194.3365 3404.4916 3402.4986
TCL: Step 1600, total torque applied: 3756754.11912
TCL: Step 1600, total torque applied: 3651399.21563
ETITLE: TS BOND ANGLE DIHED IMPRP ELECT VDW BOUNDARY MISC KINETIC TOTAL TEMP TOTAL2 TOTAL3 TEMPAVG PRESSURE GPRESSURE VOLUME PRESSAVG GPRESSAVG
ENERGY: 1600 2167.4066 1169.7147 222.5174 6.7014 -29267.1693 3550.6700 0.0000 0.0000 9922.2292 -12227.9300 460.4687 -12104.4182 -12092.8908 456.4190 6014.4905 2543.0224 71194.3365 3296.0373 3284.6531
TCL: Step 1700, total torque applied: 3734932.1001
TCL: Step 1700, total torque applied: 3606907.14767
ETITLE: TS BOND ANGLE DIHED IMPRP ELECT VDW BOUNDARY MISC KINETIC TOTAL TEMP TOTAL2 TOTAL3 TEMPAVG PRESSURE GPRESSURE VOLUME PRESSAVG GPRESSAVG
ENERGY: 1700 2201.8725 1198.0554 235.3236 6.9622 -29179.6490 3501.5679 0.0000 0.0000 9823.9671 -12211.9003 455.9086 -12085.7385 -12081.1414 452.2407 6079.9371 2503.1891 71194.3365 3078.9024 3062.3998
TCL: Step 1800, total torque applied: 3733411.36966
TCL: Step 1800, total torque applied: 3626951.86952
ETITLE: TS BOND ANGLE DIHED IMPRP ELECT VDW BOUNDARY MISC KINETIC TOTAL TEMP TOTAL2 TOTAL3 TEMPAVG PRESSURE GPRESSURE VOLUME PRESSAVG GPRESSAVG
ENERGY: 1800 2162.4182 1183.6902 223.7854 6.1395 -29261.3444 3648.7323 0.0000 0.0000 9826.1445 -12210.4342 456.0097 -12085.2387 -12078.1301 453.9014 6896.9933 3183.0091 71194.3365 2937.1883 2922.3588
TCL: Step 1900, total torque applied: 3742068.16972
TCL: Step 1900, total torque applied: 3663856.29548
ETITLE: TS BOND ANGLE DIHED IMPRP ELECT VDW BOUNDARY MISC KINETIC TOTAL TEMP TOTAL2 TOTAL3 TEMPAVG PRESSURE GPRESSURE VOLUME PRESSAVG GPRESSAVG
ENERGY: 1900 2201.8424 1205.2228 224.6292 5.8600 -29168.0712 3506.7385 0.0000 0.0000 9918.9577 -12104.8207 460.3169 -11982.4680 -11964.4978 458.8769 5574.9199 2950.1740 71194.3365 2923.5776 2914.1769
TCL: Step 2000, total torque applied: 3812089.1884
TCL: Step 2000, total torque applied: 3626032.95387
ETITLE: TS BOND ANGLE DIHED IMPRP ELECT VDW BOUNDARY MISC KINETIC TOTAL TEMP TOTAL2 TOTAL3 TEMPAVG PRESSURE GPRESSURE VOLUME PRESSAVG GPRESSAVG
ENERGY: 2000 2229.2871 1178.6616 236.4910 6.0256 -29150.0026 3557.2479 0.0000 0.0000 9783.7921 -12158.4973 454.0442 -12032.0735 -12029.5399 457.1524 5752.2654 3117.4697 71194.3365 2900.4366 2899.6120
TCL: Step 2100, total torque applied: 3795272.92042
TCL: Step 2100, total torque applied: 3670123.16606
ETITLE: TS BOND ANGLE DIHED IMPRP ELECT VDW BOUNDARY MISC KINETIC TOTAL TEMP TOTAL2 TOTAL3 TEMPAVG PRESSURE GPRESSURE VOLUME PRESSAVG GPRESSAVG
ENERGY: 2100 2157.2378 1190.0828 222.1625 6.8714 -29352.1474 3696.4056 0.0000 0.0000 9920.7245 -12158.6627 460.3989 -12030.0356 -12034.8601 457.6256 6160.0327 3335.9418 71194.3365 3178.3437 3175.8149
TCL: Step 2200, total torque applied: 3791282.16213
TCL: Step 2200, total torque applied: 3691155.88059
ETITLE: TS BOND ANGLE DIHED IMPRP ELECT VDW BOUNDARY MISC KINETIC TOTAL TEMP TOTAL2 TOTAL3 TEMPAVG PRESSURE GPRESSURE VOLUME PRESSAVG GPRESSAVG
ENERGY: 2200 2181.8342 1204.0968 218.2583 7.0545 -29240.7269 3620.5364 0.0000 0.0000 9853.9473 -12154.9995 457.2999 -12031.3027 -12018.2809 456.5153 6724.3982 3413.6696 71194.3365 3379.5885 3367.2340
TCL: Step 2300, total torque applied: 3811436.67634
TCL: Step 2300, total torque applied: 3660751.53481
ETITLE: TS BOND ANGLE DIHED IMPRP ELECT VDW BOUNDARY MISC KINETIC TOTAL TEMP TOTAL2 TOTAL3 TEMPAVG PRESSURE GPRESSURE VOLUME PRESSAVG GPRESSAVG
ENERGY: 2300 2188.4072 1180.0637 222.0641 5.1271 -29283.3203 3548.1332 0.0000 0.0000 9813.6771 -12325.8480 455.4311 -12196.7317 -12205.2704 455.6743 5995.3881 2756.5794 71194.3365 2904.2690 2892.9607
TCL: Step 2400, total torque applied: 3682706.06717
TCL: Step 2400, total torque applied: 3830614.65678
ETITLE: TS BOND ANGLE DIHED IMPRP ELECT VDW BOUNDARY MISC KINETIC TOTAL TEMP TOTAL2 TOTAL3 TEMPAVG PRESSURE GPRESSURE VOLUME PRESSAVG GPRESSAVG
ENERGY: 2400 2140.4182 1223.0764 225.2828 6.8853 -29140.8630 3557.0657 0.0000 0.0000 9829.3006 -12158.8339 456.1561 -12034.1149 -12028.7855 455.7561 6048.2024 2774.3176 71194.3365 3064.0738 3049.2368
TCL: Step 2500, total torque applied: 3675623.45508
TCL: Step 2500, total torque applied: 3789297.35104
ETITLE: TS BOND ANGLE DIHED IMPRP ELECT VDW BOUNDARY MISC KINETIC TOTAL TEMP TOTAL2 TOTAL3 TEMPAVG PRESSURE GPRESSURE VOLUME PRESSAVG GPRESSAVG
ENERGY: 2500 2153.0409 1213.4680 226.2917 5.7576 -29151.9813 3604.4251 0.0000 0.0000 9747.5141 -12201.4838 452.3606 -12075.0518 -12077.3577 455.8820 7207.8581 3486.5755 71194.3365 2954.4338 2933.8543
TCL: Step 2600, total torque applied: 3797653.12568
TCL: Step 2600, total torque applied: 3694063.04097
ETITLE: TS BOND ANGLE DIHED IMPRP ELECT VDW BOUNDARY MISC KINETIC TOTAL TEMP TOTAL2 TOTAL3 TEMPAVG PRESSURE GPRESSURE VOLUME PRESSAVG GPRESSAVG
ENERGY: 2600 2180.8530 1194.0527 225.3991 6.3859 -29198.9987 3622.9426 0.0000 0.0000 9756.9664 -12212.3991 452.7993 -12084.7696 -12089.5504 456.5163 6709.9635 3293.3714 71194.3365 3055.6917 3040.9808
TCL: Step 2700, total torque applied: 3752796.248
TCL: Step 2700, total torque applied: 3670417.83063
ETITLE: TS BOND ANGLE DIHED IMPRP ELECT VDW BOUNDARY MISC KINETIC TOTAL TEMP TOTAL2 TOTAL3 TEMPAVG PRESSURE GPRESSURE VOLUME PRESSAVG GPRESSAVG
ENERGY: 2700 2206.3866 1170.8293 218.2231 6.2027 -29242.7182 3682.1929 0.0000 0.0000 9830.0593 -12128.8243 456.1913 -12001.4122 -12005.1622 457.0032 6866.5042 3599.3413 71194.3365 3207.0511 3188.6823
TCL: Step 2800, total torque applied: 3754979.82185
TCL: Step 2800, total torque applied: 3677922.93635
ETITLE: TS BOND ANGLE DIHED IMPRP ELECT VDW BOUNDARY MISC KINETIC TOTAL TEMP TOTAL2 TOTAL3 TEMPAVG PRESSURE GPRESSURE VOLUME PRESSAVG GPRESSAVG
ENERGY: 2800 2154.8315 1155.1809 235.5472 6.6643 -29137.3782 3566.9519 0.0000 0.0000 9920.1717 -12098.0307 460.3733 -11976.7299 -11955.4920 458.2408 5969.8133 2792.7257 71194.3365 3096.3413 3081.4999
TCL: Step 2900, total torque applied: 3771432.73321
TCL: Step 2900, total torque applied: 3701137.68574
ETITLE: TS BOND ANGLE DIHED IMPRP ELECT VDW BOUNDARY MISC KINETIC TOTAL TEMP TOTAL2 TOTAL3 TEMPAVG PRESSURE GPRESSURE VOLUME PRESSAVG GPRESSAVG
ENERGY: 2900 2226.5898 1215.3732 220.5091 5.6912 -29218.2861 3621.3584 0.0000 0.0000 9755.0243 -12173.7402 452.7091 -12043.5326 -12053.0560 456.0368 5985.0590 3106.4578 71194.3365 3053.2771 3044.2793
TCL: Step 3000, total torque applied: 3717057.10448
TCL: Step 3000, total torque applied: 3741774.4934
ETITLE: TS BOND ANGLE DIHED IMPRP ELECT VDW BOUNDARY MISC KINETIC TOTAL TEMP TOTAL2 TOTAL3 TEMPAVG PRESSURE GPRESSURE VOLUME PRESSAVG GPRESSAVG
ENERGY: 3000 2190.1982 1201.3540 218.5244 5.1552 -29175.0597 3679.7431 0.0000 0.0000 9818.6185 -12061.4662 455.6604 -11935.4101 -11931.2518 456.5517 6464.4047 3410.7241 71194.3365 3330.2464 3324.5470
TCL: Step 3100, total torque applied: 3783303.49654
TCL: Step 3100, total torque applied: 3758297.52001
ETITLE: TS BOND ANGLE DIHED IMPRP ELECT VDW BOUNDARY MISC KINETIC TOTAL TEMP TOTAL2 TOTAL3 TEMPAVG PRESSURE GPRESSURE VOLUME PRESSAVG GPRESSAVG
ENERGY: 3100 2175.5466 1176.1466 227.0353 6.7561 -29047.0924 3518.2412 0.0000 0.0000 9923.8267 -12019.5398 460.5429 -11891.3835 -11895.5141 456.7152 6362.8220 2984.1313 71194.3365 2980.0197 2962.2104
TCL: Step 3200, total torque applied: 3807622.89514
TCL: Step 3200, total torque applied: 3729021.84036
ETITLE: TS BOND ANGLE DIHED IMPRP ELECT VDW BOUNDARY MISC KINETIC TOTAL TEMP TOTAL2 TOTAL3 TEMPAVG PRESSURE GPRESSURE VOLUME PRESSAVG GPRESSAVG
ENERGY: 3200 2202.8974 1184.4052 221.6853 6.7461 -28987.3919 3494.4987 0.0000 0.0000 9910.2721 -11966.8870 459.9138 -11840.7795 -11837.2919 458.4118 6589.6708 2848.5801 71194.3365 3017.6902 2994.4787
TCL: Step 3300, total torque applied: 3809392.49213
TCL: Step 3300, total torque applied: 3748530.92723
ETITLE: TS BOND ANGLE DIHED IMPRP ELECT VDW BOUNDARY MISC KINETIC TOTAL TEMP TOTAL2 TOTAL3 TEMPAVG PRESSURE GPRESSURE VOLUME PRESSAVG GPRESSAVG
ENERGY: 3300 2209.5524 1179.2004 231.0943 6.0727 -28974.7893 3635.0052 0.0000 0.0000 9858.1379 -11855.7265 457.4944 -11728.5259 -11730.4593 460.6967 7027.7170 3669.2850 71194.3365 3195.4547 3174.7575
TCL: Step 3400, total torque applied: 3785582.23384
TCL: Step 3400, total torque applied: 3706689.98785
ETITLE: TS BOND ANGLE DIHED IMPRP ELECT VDW BOUNDARY MISC KINETIC TOTAL TEMP TOTAL2 TOTAL3 TEMPAVG PRESSURE GPRESSURE VOLUME PRESSAVG GPRESSAVG
ENERGY: 3400 2120.8865 1232.7779 222.7754 6.1589 -29061.3129 3577.5476 0.0000 0.0000 9872.0072 -12029.1593 458.1381 -11903.1674 -11898.0397 462.0676 6175.3783 2897.1644 71194.3365 3459.9006 3441.4823
TCL: Step 3500, total torque applied: 3796139.0058
TCL: Step 3500, total torque applied: 3661876.40617
ETITLE: TS BOND ANGLE DIHED IMPRP ELECT VDW BOUNDARY MISC KINETIC TOTAL TEMP TOTAL2 TOTAL3 TEMPAVG PRESSURE GPRESSURE VOLUME PRESSAVG GPRESSAVG
ENERGY: 3500 2200.1128 1218.9697 217.8149 5.0011 -29079.4862 3599.0496 0.0000 0.0000 9892.3098 -11946.2283 459.0803 -11820.8409 -11815.6831 460.0980 5799.0898 3193.2467 71194.3365 3111.1779 3100.4688
TCL: Step 3600, total torque applied: 3685337.05407
TCL: Step 3600, total torque applied: 3784915.47657
ETITLE: TS BOND ANGLE DIHED IMPRP ELECT VDW BOUNDARY MISC KINETIC TOTAL TEMP TOTAL2 TOTAL3 TEMPAVG PRESSURE GPRESSURE VOLUME PRESSAVG GPRESSAVG
ENERGY: 3600 2178.4365 1182.4425 222.8224 6.0352 -29268.4449 3674.3064 0.0000 0.0000 9979.1867 -12025.2153 463.1120 -11897.3167 -11900.9432 459.6392 6492.4684 3574.3930 71194.3365 3231.0760 3215.0482
TCL: Step 3700, total torque applied: 3790669.59049
TCL: Step 3700, total torque applied: 3691697.8894
ETITLE: TS BOND ANGLE DIHED IMPRP ELECT VDW BOUNDARY MISC KINETIC TOTAL TEMP TOTAL2 TOTAL3 TEMPAVG PRESSURE GPRESSURE VOLUME PRESSAVG GPRESSAVG
ENERGY: 3700 2189.4635 1177.2098 220.8163 6.0975 -29177.5177 3587.9469 0.0000 0.0000 9847.3539 -12148.6298 456.9939 -12026.6959 -12007.0976 460.0112 5534.2985 2722.3616 71194.3365 3375.2541 3361.9405
TCL: Step 3800, total torque applied: 3807498.81157
TCL: Step 3800, total torque applied: 3682068.35541
ETITLE: TS BOND ANGLE DIHED IMPRP ELECT VDW BOUNDARY MISC KINETIC TOTAL TEMP TOTAL2 TOTAL3 TEMPAVG PRESSURE GPRESSURE VOLUME PRESSAVG GPRESSAVG
ENERGY: 3800 2161.6020 1240.7247 228.5408 5.7862 -29420.5103 3767.8274 0.0000 0.0000 9803.1552 -12212.8741 454.9428 -12089.9460 -12075.8238 454.0911 6739.2626 3555.1468 71194.3365 3345.4276 3328.9128
TCL: Step 3900, total torque applied: 3798860.38549
TCL: Step 3900, total torque applied: 3673647.20274
ETITLE: TS BOND ANGLE DIHED IMPRP ELECT VDW BOUNDARY MISC KINETIC TOTAL TEMP TOTAL2 TOTAL3 TEMPAVG PRESSURE GPRESSURE VOLUME PRESSAVG GPRESSAVG
ENERGY: 3900 2141.0132 1213.4593 225.7509 7.2101 -29218.0540 3604.1218 0.0000 0.0000 9696.9454 -12329.5533 450.0138 -12201.8900 -12206.4790 451.7104 6458.8265 3114.0275 71194.3365 3219.5057 3198.2260
TCL: Step 4000, total torque applied: 3783829.70649
TCL: Step 4000, total torque applied: 3677719.86978
