Info: SIMULATION PARAMETERS:
Info: TIMESTEP               1
Info: NUMBER OF STEPS        10000
Info: STEPS PER CYCLE        20
Info: PERIODIC CELL BASIS 1  38.475 0 0
Info: PERIODIC CELL BASIS 2  0 38.475 0
Info: PERIODIC CELL BASIS 3  0 0 48.0937
Info: PERIODIC CELL CENTER   0 0 0
Info: WRAPPING ALL CLUSTERS AROUND PERIODIC BOUNDARIES ON OUTPUT.
Info: WRAPPING TO IMAGE NEAREST TO PERIODIC CELL CENTER.
Info: FIRST LDB TIMESTEP     100
Info: HOM BACKGROUND SCALING 1
Info: PME BACKGROUND SCALING 1
Info: MAX SELF PARTITIONS    50
Info: MAX PAIR PARTITIONS    20
Info: SELF PARTITION ATOMS   125
Info: PAIR PARTITION ATOMS   200
Info: PAIR2 PARTITION ATOMS  400
Info: MIN ATOMS PER PATCH    100
Info: VELOCITY FILE          ./eq03.dsDNA6_solv.restart.vel
Info: CENTER OF MASS MOVING INITIALLY? NO
Info: DIELECTRIC             1
Info: EXCLUDE                SCALED ONE-FOUR
Info: 1-4 SCALE FACTOR       1
Info: DCD FILENAME           ./eq04.shear.dcd
Info: DCD FREQUENCY          100
Info: DCD FIRST STEP         100
Info: DCD FILE WILL CONTAIN UNIT CELL DATA
Info: XST FILENAME           ./eq04.shear.xst
Info: XST FREQUENCY          100
Info: NO VELOCITY DCD OUTPUT
Info: OUTPUT FILENAME        ./eq04.shear
Info: BINARY OUTPUT FILES WILL BE USED
Info: RESTART FILENAME       ./eq04.shear.restart
Info: RESTART FREQUENCY      100
Info: BINARY RESTART FILES WILL BE USED
Info: SWITCHING ACTIVE
Info: SWITCHING ON           10
Info: SWITCHING OFF          12
Info: PAIRLIST DISTANCE      14
Info: PAIRLIST SHRINK RATE   0.01
Info: PAIRLIST GROW RATE     0.01
Info: PAIRLIST TRIGGER       0.3
Info: PAIRLISTS PER CYCLE    2
Info: PAIRLISTS ENABLED
Info: MARGIN                 3
Info: HYDROGEN GROUP CUTOFF  2.5
Info: PATCH DIMENSION        19.5
Info: ENERGY OUTPUT STEPS    100
Info: CROSSTERM ENERGY INCLUDED IN DIHEDRAL
Info: TIMING OUTPUT STEPS    100
Info: TCL BOUNDARY FORCES ACTIVE
Info: TCL BOUNDARY FORCES SCRIPT
Info: TCL BOUNDARY FORCES ARGS
Info: LANGEVIN DYNAMICS ACTIVE
Info: LANGEVIN TEMPERATURE   295
Info: LANGEVIN DAMPING COEFFICIENT IS 10 INVERSE PS
Info: LANGEVIN DYNAMICS NOT APPLIED TO HYDROGENS
Info: PARTICLE MESH EWALD (PME) ACTIVE
Info: PME TOLERANCE               1e-06
Info: PME EWALD COEFFICIENT       0.257952
Info: PME INTERPOLATION ORDER     4
Info: PME GRID DIMENSIONS         32 32 40
Info: PME MAXIMUM GRID SPACING    1.5
Info: FULL ELECTROSTATIC EVALUATION FREQUENCY      4
Info: USING VERLET I (r-RESPA) MTS SCHEME.
Info: C1 SPLITTING OF LONG RANGE ELECTROSTATICS
Info: PLACING ATOMS IN PATCHES BY HYDROGEN GROUPS
Info: NONBONDED FORCES EVALUATED EVERY 2 STEPS
Info: RANDOM NUMBER SEED     1163182390
Info: USE HYDROGEN BONDS?    NO
Info: COORDINATE PDB         ./dsDNA6_solv.pdb
Info: STRUCTURE FILE         ./dsDNA6_solv.psf
Info: PARAMETER file: CHARMM format!
Info: PARAMETERS             ./cornell.prm
Info: USING ARITHMETIC MEAN TO COMBINE L-J SIGMA PARAMETERS
Info: BINARY COORDINATES     ./eq03.dsDNA6_solv.restart.coor
Info: SUMMARY OF PARAMETERS:
Info: 85 BONDS
Info: 193 ANGLES
Info: 81 DIHEDRAL
Info: 31 IMPROPER
Info: 0 CROSSTERM
Info: 47 VDW
Info: 0 VDW_PAIRS
Info: STRUCTURE SUMMARY:
Info: 7229 ATOMS
Info: 4974 BONDS
Info: 3021 ANGLES
Info: 1076 DIHEDRALS
Info: 68 IMPROPERS
Info: 0 CROSSTERMS
Info: 0 EXCLUSIONS
Info: 21687 DEGREES OF FREEDOM
Info: 2523 HYDROGEN GROUPS
Info: TOTAL MASS = 44701.6 amu
Info: TOTAL CHARGE = -10 e
Info: REMOVING COM VELOCITY 0.0452631 0.0402173 -0.0327026
Info: NONBONDED TABLE R-SQUARED SPACING: 0.0625
Info: NONBONDED TABLE SIZE: 769 POINTS
TCL: Step 0, total torque applied: 0.
ETITLE: TS BOND ANGLE DIHED IMPRP ELECT VDW BOUNDARY MISC KINETIC TOTAL TEMP TOTAL2 TOTAL3 TEMPAVG PRESSURE GPRESSURE VOLUME PRESSAVG GPRESSAVG
ENERGY: 0 2179.7231 1250.7604 209.9041 5.6556 -31182.2108 3954.5354 0.0000 0.0000 6471.0207 -17110.6116 300.3058 -16988.7129 -16988.7129 300.3058 3925.6204 -197.3022 71194.3365 3925.6204 -197.3022
TCL: Step 100, total torque applied: 7390881.7328
ETITLE: TS BOND ANGLE DIHED IMPRP ELECT VDW BOUNDARY MISC KINETIC TOTAL TEMP TOTAL2 TOTAL3 TEMPAVG PRESSURE GPRESSURE VOLUME PRESSAVG GPRESSAVG
ENERGY: 100 2262.9232 1248.1362 224.3330 7.4191 -31152.7644 3977.2211 0.0000 0.0000 7450.3229 -15982.4089 345.7530 -15857.5852 -15864.8526 319.7690 4848.0583 947.7184 71194.3365 592.0465 586.0990
TCL: Step 200, total torque applied: 7353498.40457
ETITLE: TS BOND ANGLE DIHED IMPRP ELECT VDW BOUNDARY MISC KINETIC TOTAL TEMP TOTAL2 TOTAL3 TEMPAVG PRESSURE GPRESSURE VOLUME PRESSAVG GPRESSAVG
ENERGY: 200 2218.3771 1197.5508 216.6283 5.5951 -30853.8590 3927.9297 0.0000 0.0000 8584.0065 -14703.7714 398.3648 -14573.9437 -14588.2297 373.4646 5491.6424 1879.4257 71194.3365 1443.7422 1447.7660
TCL: Step 300, total torque applied: 7349537.09787
ETITLE: TS BOND ANGLE DIHED IMPRP ELECT VDW BOUNDARY MISC KINETIC TOTAL TEMP TOTAL2 TOTAL3 TEMPAVG PRESSURE GPRESSURE VOLUME PRESSAVG GPRESSAVG
ENERGY: 300 2221.4860 1170.2631 212.0708 7.4069 -30407.0269 3827.4978 0.0000 0.0000 8966.4906 -14001.8116 416.1150 -13873.2066 -13877.0786 407.1942 5771.0758 2190.4349 71194.3365 1982.7801 1978.5979
TCL: Step 400, total torque applied: 7369366.74223
ETITLE: TS BOND ANGLE DIHED IMPRP ELECT VDW BOUNDARY MISC KINETIC TOTAL TEMP TOTAL2 TOTAL3 TEMPAVG PRESSURE GPRESSURE VOLUME PRESSAVG GPRESSAVG
ENERGY: 400 2218.9406 1190.6955 217.5357 5.6614 -30270.4129 3864.2341 0.0000 0.0000 9313.9343 -13459.4113 432.2391 -13333.2483 -13327.7876 424.0324 6145.9227 2500.5783 71194.3365 2192.5144 2197.6246
TCL: Step 500, total torque applied: 7426847.3435
ETITLE: TS BOND ANGLE DIHED IMPRP ELECT VDW BOUNDARY MISC KINETIC TOTAL TEMP TOTAL2 TOTAL3 TEMPAVG PRESSURE GPRESSURE VOLUME PRESSAVG GPRESSAVG
ENERGY: 500 2284.1540 1215.4745 219.9202 4.7020 -29981.9900 3759.8910 0.0000 0.0000 9451.3877 -13046.4606 438.6180 -12916.9502 -12919.6084 437.0411 5797.3745 2813.8016 71194.3365 2817.6430 2819.2852
TCL: Step 600, total torque applied: 7422768.43613
ETITLE: TS BOND ANGLE DIHED IMPRP ELECT VDW BOUNDARY MISC KINETIC TOTAL TEMP TOTAL2 TOTAL3 TEMPAVG PRESSURE GPRESSURE VOLUME PRESSAVG GPRESSAVG
ENERGY: 600 2252.3086 1222.1060 213.0159 4.8682 -29879.7822 3775.7635 0.0000 0.0000 9441.0489 -12970.6712 438.1382 -12841.7400 -12841.8574 439.7074 6016.2291 2999.9484 71194.3365 2851.0096 2849.7647
TCL: Step 700, total torque applied: 7390150.37527
ETITLE: TS BOND ANGLE DIHED IMPRP ELECT VDW BOUNDARY MISC KINETIC TOTAL TEMP TOTAL2 TOTAL3 TEMPAVG PRESSURE GPRESSURE VOLUME PRESSAVG GPRESSAVG
ENERGY: 700 2235.4374 1176.8615 216.4127 6.6924 -29783.6887 3819.8137 0.0000 0.0000 9399.9720 -12928.4990 436.2319 -12798.5559 -12803.4409 439.2094 6231.3757 3255.8106 71194.3365 2938.4340 2944.9208
TCL: Step 800, total torque applied: 7352507.04935
ETITLE: TS BOND ANGLE DIHED IMPRP ELECT VDW BOUNDARY MISC KINETIC TOTAL TEMP TOTAL2 TOTAL3 TEMPAVG PRESSURE GPRESSURE VOLUME PRESSAVG GPRESSAVG
ENERGY: 800 2227.4724 1186.9821 214.9054 4.9080 -29658.7059 3730.5714 0.0000 0.0000 9529.9241 -12763.9425 442.2627 -12635.8801 -12635.6062 439.7876 6368.9253 3006.2166 71194.3365 2934.4238 2925.7879
TCL: Step 900, total torque applied: 7376169.6837
ETITLE: TS BOND ANGLE DIHED IMPRP ELECT VDW BOUNDARY MISC KINETIC TOTAL TEMP TOTAL2 TOTAL3 TEMPAVG PRESSURE GPRESSURE VOLUME PRESSAVG GPRESSAVG
ENERGY: 900 2256.1071 1195.2489 209.6327 4.4175 -29640.3203 3696.1604 0.0000 0.0000 9635.4396 -12643.3141 447.1595 -12514.6674 -12517.3976 445.6659 6351.4350 2886.7515 71194.3365 3048.9762 3037.4143
TCL: Step 1000, total torque applied: 7383668.54145
ETITLE: TS BOND ANGLE DIHED IMPRP ELECT VDW BOUNDARY MISC KINETIC TOTAL TEMP TOTAL2 TOTAL3 TEMPAVG PRESSURE GPRESSURE VOLUME PRESSAVG GPRESSAVG
ENERGY: 1000 2174.3489 1207.4192 232.5762 5.5527 -29372.7613 3575.9599 0.0000 0.0000 9693.5167 -12483.3877 449.8547 -12353.4404 -12360.3669 445.6745 6182.6421 2748.6353 71194.3365 2850.2553 2846.8112
TCL: Step 1100, total torque applied: 7362636.41083
ETITLE: TS BOND ANGLE DIHED IMPRP ELECT VDW BOUNDARY MISC KINETIC TOTAL TEMP TOTAL2 TOTAL3 TEMPAVG PRESSURE GPRESSURE VOLUME PRESSAVG GPRESSAVG
ENERGY: 1100 2232.4178 1193.9964 219.9479 5.8726 -29514.8938 3741.7415 0.0000 0.0000 9699.6034 -12421.3142 450.1372 -12290.9595 -12297.2234 453.3071 6848.3674 3532.5028 71194.3365 3131.6744 3123.8211
TCL: Step 1200, total torque applied: 7388310.2286
ETITLE: TS BOND ANGLE DIHED IMPRP ELECT VDW BOUNDARY MISC KINETIC TOTAL TEMP TOTAL2 TOTAL3 TEMPAVG PRESSURE GPRESSURE VOLUME PRESSAVG GPRESSAVG
ENERGY: 1200 2211.7673 1175.8715 217.5403 4.6909 -29406.3851 3655.5342 0.0000 0.0000 9686.2518 -12454.7290 449.5176 -12325.3364 -12328.7279 448.2189 5928.5194 2933.2073 71194.3365 3206.5811 3202.5778
TCL: Step 1300, total torque applied: 7364173.9953
ETITLE: TS BOND ANGLE DIHED IMPRP ELECT VDW BOUNDARY MISC KINETIC TOTAL TEMP TOTAL2 TOTAL3 TEMPAVG PRESSURE GPRESSURE VOLUME PRESSAVG GPRESSAVG
ENERGY: 1300 2174.1680 1180.8321 224.5564 7.7043 -29485.3530 3722.4991 0.0000 0.0000 9791.0137 -12384.5795 454.3793 -12259.0454 -12246.5440 447.7925 6178.4365 3382.7520 71194.3365 3342.3117 3349.6948
TCL: Step 1400, total torque applied: 7433141.72006
ETITLE: TS BOND ANGLE DIHED IMPRP ELECT VDW BOUNDARY MISC KINETIC TOTAL TEMP TOTAL2 TOTAL3 TEMPAVG PRESSURE GPRESSURE VOLUME PRESSAVG GPRESSAVG
ENERGY: 1400 2186.5276 1221.3749 223.0511 6.8654 -29322.4782 3660.4448 0.0000 0.0000 9697.7089 -12326.5055 450.0493 -12199.4067 -12194.5058 449.7280 6233.7918 3295.3401 71194.3365 3324.0207 3314.4158
TCL: Step 1500, total torque applied: 7441193.41049
ETITLE: TS BOND ANGLE DIHED IMPRP ELECT VDW BOUNDARY MISC KINETIC TOTAL TEMP TOTAL2 TOTAL3 TEMPAVG PRESSURE GPRESSURE VOLUME PRESSAVG GPRESSAVG
ENERGY: 1500 2231.6094 1230.8015 225.1826 7.7213 -29376.4144 3787.3494 0.0000 0.0000 9743.5659 -12150.1842 452.1774 -12021.8078 -12022.5845 452.3855 6944.5175 3511.4792 71194.3365 3397.4059 3387.5839
TCL: Step 1600, total torque applied: 7412607.52898
ETITLE: TS BOND ANGLE DIHED IMPRP ELECT VDW BOUNDARY MISC KINETIC TOTAL TEMP TOTAL2 TOTAL3 TEMPAVG PRESSURE GPRESSURE VOLUME PRESSAVG GPRESSAVG
ENERGY: 1600 2181.2717 1199.6022 218.4050 5.9334 -29173.9485 3599.6086 0.0000 0.0000 9922.9894 -12046.1382 460.5040 -11921.3489 -11909.9627 454.9918 6648.9192 3407.3515 71194.3365 3259.2934 3251.7297
TCL: Step 1700, total torque applied: 7379682.79899
ETITLE: TS BOND ANGLE DIHED IMPRP ELECT VDW BOUNDARY MISC KINETIC TOTAL TEMP TOTAL2 TOTAL3 TEMPAVG PRESSURE GPRESSURE VOLUME PRESSAVG GPRESSAVG
ENERGY: 1700 2206.2585 1172.6507 230.3025 5.9542 -29029.5741 3550.1297 0.0000 0.0000 9896.6528 -11967.6258 459.2818 -11838.9574 -11844.3489 457.7859 6658.8044 3336.4089 71194.3365 3170.9149 3164.2890
TCL: Step 1800, total torque applied: 7359142.12888
ETITLE: TS BOND ANGLE DIHED IMPRP ELECT VDW BOUNDARY MISC KINETIC TOTAL TEMP TOTAL2 TOTAL3 TEMPAVG PRESSURE GPRESSURE VOLUME PRESSAVG GPRESSAVG
ENERGY: 1800 2233.1329 1231.3775 219.0620 5.7269 -28969.7372 3510.0197 0.0000 0.0000 9931.8386 -11838.5796 460.9147 -11709.2130 -11715.5757 462.0344 6625.1990 3127.7959 71194.3365 3026.2051 3016.5264
TCL: Step 1900, total torque applied: 7406909.50298
ETITLE: TS BOND ANGLE DIHED IMPRP ELECT VDW BOUNDARY MISC KINETIC TOTAL TEMP TOTAL2 TOTAL3 TEMPAVG PRESSURE GPRESSURE VOLUME PRESSAVG GPRESSAVG
ENERGY: 1900 2213.6392 1214.5989 215.4419 6.9142 -28857.1796 3392.6208 0.0000 0.0000 9922.9160 -11891.0487 460.5006 -11764.7741 -11758.2966 460.8424 5962.0459 2702.2363 71194.3365 2886.0176 2877.6395
TCL: Step 2000, total torque applied: 7463698.98651
ETITLE: TS BOND ANGLE DIHED IMPRP ELECT VDW BOUNDARY MISC KINETIC TOTAL TEMP TOTAL2 TOTAL3 TEMPAVG PRESSURE GPRESSURE VOLUME PRESSAVG GPRESSAVG
ENERGY: 2000 2194.9788 1213.7945 218.9617 5.1046 -28941.0093 3439.9517 0.0000 0.0000 10025.9976 -11842.2205 465.2844 -11713.1039 -11716.6319 462.3199 5909.1699 2895.2984 71194.3365 3006.0613 3002.5554
TCL: Step 2100, total torque applied: 7416122.25819
ETITLE: TS BOND ANGLE DIHED IMPRP ELECT VDW BOUNDARY MISC KINETIC TOTAL TEMP TOTAL2 TOTAL3 TEMPAVG PRESSURE GPRESSURE VOLUME PRESSAVG GPRESSAVG
ENERGY: 2100 2231.0297 1210.9267 221.3611 5.1190 -29035.9840 3476.8012 0.0000 0.0000 10029.8837 -11860.8627 465.4648 -11734.3439 -11727.8685 461.5998 5926.1243 2959.5380 71194.3365 2759.1212 2755.3639
TCL: Step 2200, total torque applied: 7444760.87429
ETITLE: TS BOND ANGLE DIHED IMPRP ELECT VDW BOUNDARY MISC KINETIC TOTAL TEMP TOTAL2 TOTAL3 TEMPAVG PRESSURE GPRESSURE VOLUME PRESSAVG GPRESSAVG
ENERGY: 2200 2230.4565 1237.1713 230.3575 5.4516 -29005.2107 3462.3143 0.0000 0.0000 9944.6794 -11894.7801 461.5106 -11768.3418 -11761.6491 462.5950 5428.6598 2911.6111 71194.3365 3085.4464 3088.5390
TCL: Step 2300, total torque applied: 7487409.3418
ETITLE: TS BOND ANGLE DIHED IMPRP ELECT VDW BOUNDARY MISC KINETIC TOTAL TEMP TOTAL2 TOTAL3 TEMPAVG PRESSURE GPRESSURE VOLUME PRESSAVG GPRESSAVG
ENERGY: 2300 2186.9499 1245.0860 214.9419 5.6220 -29055.3297 3663.2803 0.0000 0.0000 9992.1019 -11747.3477 463.7114 -11617.9115 -11621.6383 463.6723 6594.4437 3544.3880 71194.3365 3270.0741 3266.6239
TCL: Step 2400, total torque applied: 7494481.79927
ETITLE: TS BOND ANGLE DIHED IMPRP ELECT VDW BOUNDARY MISC KINETIC TOTAL TEMP TOTAL2 TOTAL3 TEMPAVG PRESSURE GPRESSURE VOLUME PRESSAVG GPRESSAVG
ENERGY: 2400 2216.2816 1232.9026 216.2992 6.1321 -28918.6383 3478.8476 0.0000 0.0000 10018.2658 -11749.9094 464.9256 -11622.4653 -11621.3516 461.8283 7025.6315 3185.3133 71194.3365 3446.1196 3429.6881
TCL: Step 2500, total torque applied: 7476992.28361
ETITLE: TS BOND ANGLE DIHED IMPRP ELECT VDW BOUNDARY MISC KINETIC TOTAL TEMP TOTAL2 TOTAL3 TEMPAVG PRESSURE GPRESSURE VOLUME PRESSAVG GPRESSAVG
ENERGY: 2500 2211.2493 1211.6992 213.6788 8.2148 -28948.7992 3583.8332 0.0000 0.0000 9939.7781 -11780.3458 461.2832 -11648.4513 -11661.9668 462.7994 7044.2560 3591.1889 71194.3365 3147.5566 3131.6925
TCL: Step 2600, total torque applied: 7428160.40638
ETITLE: TS BOND ANGLE DIHED IMPRP ELECT VDW BOUNDARY MISC KINETIC TOTAL TEMP TOTAL2 TOTAL3 TEMPAVG PRESSURE GPRESSURE VOLUME PRESSAVG GPRESSAVG
ENERGY: 2600 2167.7476 1206.7168 221.3187 5.0769 -28930.2117 3546.2606 0.0000 0.0000 9920.8584 -11862.2327 460.4051 -11734.6970 -11731.4645 461.0269 6782.9092 3408.4960 71194.3365 3452.8476 3443.0994
TCL: Step 2700, total torque applied: 7433491.7605
ETITLE: TS BOND ANGLE DIHED IMPRP ELECT VDW BOUNDARY MISC KINETIC TOTAL TEMP TOTAL2 TOTAL3 TEMPAVG PRESSURE GPRESSURE VOLUME PRESSAVG GPRESSAVG
ENERGY: 2700 2210.5506 1214.2457 215.9620 7.1536 -28986.9571 3489.2295 0.0000 0.0000 9891.7279 -11958.0877 459.0533 -11831.5429 -11825.8698 459.8795 5860.9748 2964.0444 71194.3365 3088.2260 3083.7185
TCL: Step 2800, total torque applied: 7420686.32182
ETITLE: TS BOND ANGLE DIHED IMPRP ELECT VDW BOUNDARY MISC KINETIC TOTAL TEMP TOTAL2 TOTAL3 TEMPAVG PRESSURE GPRESSURE VOLUME PRESSAVG GPRESSAVG
ENERGY: 2800 2235.2078 1247.6723 218.4788 4.7427 -29245.3226 3555.1415 0.0000 0.0000 9859.7562 -12124.3235 457.5695 -11997.1459 -11993.7823 458.8571 5349.6815 3011.1038 71194.3365 3066.3455 3062.3611
TCL: Step 2900, total torque applied: 7417392.92589
ETITLE: TS BOND ANGLE DIHED IMPRP ELECT VDW BOUNDARY MISC KINETIC TOTAL TEMP TOTAL2 TOTAL3 TEMPAVG PRESSURE GPRESSURE VOLUME PRESSAVG GPRESSAVG
ENERGY: 2900 2209.5245 1241.4331 213.4763 6.1117 -29156.0692 3633.7380 0.0000 0.0000 9733.2561 -12118.5295 451.6989 -11989.8263 -11992.8376 457.1204 5915.9301 3242.0291 71194.3365 2993.9131 2992.4263
TCL: Step 3000, total torque applied: 7450305.45931
ETITLE: TS BOND ANGLE DIHED IMPRP ELECT VDW BOUNDARY MISC KINETIC TOTAL TEMP TOTAL2 TOTAL3 TEMPAVG PRESSURE GPRESSURE VOLUME PRESSAVG GPRESSAVG
ENERGY: 3000 2176.3502 1227.9168 209.2307 4.0137 -29032.9313 3518.0249 0.0000 0.0000 9853.9063 -12043.4888 457.2980 -11917.1072 -11910.5717 455.4923 6393.8862 3025.6026 71194.3365 2901.9448 2881.5508
TCL: Step 3100, total torque applied: 7488883.14036
ETITLE: TS BOND ANGLE DIHED IMPRP ELECT VDW BOUNDARY MISC KINETIC TOTAL TEMP TOTAL2 TOTAL3 TEMPAVG PRESSURE GPRESSURE VOLUME PRESSAVG GPRESSAVG
ENERGY: 3100 2151.5696 1276.5902 212.7190 4.4925 -29222.9876 3590.1362 0.0000 0.0000 10024.5564 -11962.9236 465.2175 -11837.3286 -11827.7078 460.1835 6571.4661 3071.3272 71194.3365 3157.3695 3130.6631
TCL: Step 3200, total torque applied: 7500310.54745
ETITLE: TS BOND ANGLE DIHED IMPRP ELECT VDW BOUNDARY MISC KINETIC TOTAL TEMP TOTAL2 TOTAL3 TEMPAVG PRESSURE GPRESSURE VOLUME PRESSAVG GPRESSAVG
ENERGY: 3200 2191.9013 1243.4567 224.5394 6.5406 -28905.6576 3406.5553 0.0000 0.0000 9863.9235 -11968.7408 457.7629 -11842.3089 -11836.0381 459.9764 6463.0491 3025.9099 71194.3365 2950.3842 2933.0143
TCL: Step 3300, total torque applied: 7460836.48912
ETITLE: TS BOND ANGLE DIHED IMPRP ELECT VDW BOUNDARY MISC KINETIC TOTAL TEMP TOTAL2 TOTAL3 TEMPAVG PRESSURE GPRESSURE VOLUME PRESSAVG GPRESSAVG
ENERGY: 3300 2142.5364 1214.9950 220.7893 6.0695 -29029.5285 3594.7891 0.0000 0.0000 9915.0457 -11935.3037 460.1354 -11811.1180 -11799.3273 457.4725 6632.8580 3305.0773 71194.3365 3038.4664 3026.1476
TCL: Step 3400, total torque applied: 7419309.55837
ETITLE: TS BOND ANGLE DIHED IMPRP ELECT VDW BOUNDARY MISC KINETIC TOTAL TEMP TOTAL2 TOTAL3 TEMPAVG PRESSURE GPRESSURE VOLUME PRESSAVG GPRESSAVG
ENERGY: 3400 2189.1409 1188.3446 223.0534 6.4609 -29172.2304 3617.7763 0.0000 0.0000 9968.8662 -11978.5882 462.6331 -11847.5368 -11859.1584 463.9004 6095.5721 3026.1658 71194.3365 3291.3952 3273.7170
TCL: Step 3500, total torque applied: 7360495.93672
ETITLE: TS BOND ANGLE DIHED IMPRP ELECT VDW BOUNDARY MISC KINETIC TOTAL TEMP TOTAL2 TOTAL3 TEMPAVG PRESSURE GPRESSURE VOLUME PRESSAVG GPRESSAVG
ENERGY: 3500 2163.7348 1224.5415 218.1154 5.5665 -29180.4544 3650.2093 0.0000 0.0000 9983.5871 -11934.6998 463.3162 -11807.4115 -11805.3902 463.9632 5753.2701 3282.8437 71194.3365 3474.9014 3465.5588
TCL: Step 3600, total torque applied: 7356626.88514
ETITLE: TS BOND ANGLE DIHED IMPRP ELECT VDW BOUNDARY MISC KINETIC TOTAL TEMP TOTAL2 TOTAL3 TEMPAVG PRESSURE GPRESSURE VOLUME PRESSAVG GPRESSAVG
ENERGY: 3600 2205.6103 1218.5256 217.6269 6.7829 -29116.1744 3633.7648 0.0000 0.0000 9969.5943 -11864.2697 462.6669 -11738.4666 -11733.2047 462.2600 6235.4182 3304.5952 71194.3365 3008.9696 3006.4556
TCL: Step 3700, total torque applied: 7402542.10269
ETITLE: TS BOND ANGLE DIHED IMPRP ELECT VDW BOUNDARY MISC KINETIC TOTAL TEMP TOTAL2 TOTAL3 TEMPAVG PRESSURE GPRESSURE VOLUME PRESSAVG GPRESSAVG
ENERGY: 3700 2197.8225 1220.1518 213.9607 5.3589 -29124.6001 3600.0693 0.0000 0.0000 9969.3647 -11917.8720 462.6562 -11791.9411 -11784.0002 464.0441 6514.0343 3238.3646 71194.3365 3554.9874 3531.6694
TCL: Step 3800, total torque applied: 7349398.5635
ETITLE: TS BOND ANGLE DIHED IMPRP ELECT VDW BOUNDARY MISC KINETIC TOTAL TEMP TOTAL2 TOTAL3 TEMPAVG PRESSURE GPRESSURE VOLUME PRESSAVG GPRESSAVG
ENERGY: 3800 2227.2522 1224.9947 224.1789 6.1527 -29145.9036 3618.8766 0.0000 0.0000 9866.7904 -11977.6580 457.8960 -11847.3455 -11856.5018 462.5307 6625.6375 3397.3310 71194.3365 3343.5287 3333.9292
TCL: Step 3900, total torque applied: 7347524.17962
ETITLE: TS BOND ANGLE DIHED IMPRP ELECT VDW BOUNDARY MISC KINETIC TOTAL TEMP TOTAL2 TOTAL3 TEMPAVG PRESSURE GPRESSURE VOLUME PRESSAVG GPRESSAVG
ENERGY: 3900 2135.6017 1193.0343 219.2147 3.7970 -29132.7521 3555.5994 0.0000 0.0000 10013.4898 -12012.0152 464.7039 -11883.6571 -11885.9411 460.6435 6421.4913 2899.4456 71194.3365 3177.9864 3154.5848
TCL: Step 4000, total torque applied: 7412026.01523
