Info: SIMULATION PARAMETERS:
Info: TIMESTEP               2
Info: NUMBER OF STEPS        0
Info: STEPS PER CYCLE        10
Info: FIRST LDB TIMESTEP     50
Info: LAST LDB TIMESTEP     -1
Info: HOM BACKGROUND SCALING 1
Info: MIN ATOMS PER PATCH    40
Info: EMPTY PATCH LOAD       40 ATOMS
Info: INITIAL TEMPERATURE    310
Info: CENTER OF MASS MOVING INITIALLY? NO
Info: DIELECTRIC             1
Info: EXCLUDE                SCALED ONE-FOUR
Info: 1-4 ELECTROSTATICS SCALED BY 1
Info: MODIFIED 1-4 VDW PARAMETERS WILL BE USED
Info: DCD FILENAME           ubq_ww_pcv.dcd
Info: DCD FREQUENCY          10
Info: DCD FIRST STEP         10
Info: XST FILENAME           ubq_ww_pcv.xst
Info: XST FREQUENCY          500
Info: NO VELOCITY DCD OUTPUT
Info: NO FORCE DCD OUTPUT
Info: OUTPUT FILENAME        ubq_ww_pcv
Info: BINARY OUTPUT FILES WILL BE USED
Info: RESTART FILENAME       ubq_ww_pcv.restart
Info: RESTART FREQUENCY      500
Info: BINARY RESTART FILES WILL BE USED
Info: SWITCHING ACTIVE
Info: SWITCHING ON           10
Info: SWITCHING OFF          12
Info: PAIRLIST DISTANCE      14
Info: PAIRLIST SHRINK RATE   0.01
Info: PAIRLIST GROW RATE     0.01
Info: PAIRLIST TRIGGER       0.3
Info: PAIRLISTS PER CYCLE    2
Info: PAIRLISTS ENABLED
Info: MARGIN                 0
Info: HYDROGEN GROUP CUTOFF  2.5
Info: PATCH DIMENSION        16.5
Info: ENERGY OUTPUT STEPS    10
Info: ENERGY EVALUATION STEPS    10
Info: OUTPUT ENERGY PRECISION 4
Info: OUPUT ENERGY PRECISION 4
Info: CROSSTERM ENERGY INCLUDED IN DIHEDRAL
Info: TIMING OUTPUT STEPS    100
Info: PRESSURE OUTPUT STEPS  10
Info: FIXED ATOMS ACTIVE
Info: SMD ACTIVE
Info: SMD VELOCITY    0.001 ANGSTROM/TIMESTEP
Info: SMD DIRECTION   0.27547 0.530871 0.801431
Info: SMD K   7
Info: SMD K2  0
Info: SMD OUTPUT FREQUENCY   10 TIMESTEPS
Info: SMD FILE ../common/ubq_ww_eq.smd.pdb
Info: USING VERLET I (r-RESPA) MTS SCHEME.
Info: C1 SPLITTING OF LONG RANGE ELECTROSTATICS
Info: PLACING ATOMS IN PATCHES BY HYDROGEN GROUPS
Info: RIGID BONDS TO HYDROGEN : ALL
Info:         ERROR TOLERANCE : 1e-08
Info:          MAX ITERATIONS : 100
Info: RIGID WATER USING SETTLE ALGORITHM
Info: RANDOM NUMBER SEED     1716543837
Info: USE HYDROGEN BONDS?    NO
Info: COORDINATE PDB         ../common/ubq_ww_eq.pdb
Info: STRUCTURE FILE         ../common/ubq.psf
Info: PARAMETER file: CHARMM format!
Info: PARAMETERS             ../common/par_all27_prot_lipid.inp
Info: USING ARITHMETIC MEAN TO COMBINE L-J SIGMA PARAMETERS
Info: SUMMARY OF PARAMETERS:
Info: 180 BONDS
Info: 447 ANGLES
Info: 566 DIHEDRAL
Info: 46 IMPROPER
Info: 6 CROSSTERM
Info: 119 VDW
Info: 0 VDW_PAIRS
Info: 0 NBTHOLE_PAIRS
Info: STRUCTURE SUMMARY:
Info: 1231 ATOMS
Info: 1237 BONDS
Info: 2257 ANGLES
Info: 3293 DIHEDRALS
Info: 204 IMPROPERS
Info: 74 CROSSTERMS
Info: 0 EXCLUSIONS
Info: 1 FIXED ATOMS
Info: 629 RIGID BONDS
Info: 0 RIGID BONDS BETWEEN FIXED ATOMS
Info: 3061 DEGREES OF FREEDOM
Info: 602 HYDROGEN GROUPS
Info: 4 ATOMS IN LARGEST HYDROGEN GROUP
Info: 602 MIGRATION GROUPS
Info: 4 ATOMS IN LARGEST MIGRATION GROUP
Info: 0 HYDROGEN GROUPS WITH ALL ATOMS FIXED
Info: TOTAL MASS = 8564.87 amu
Info: TOTAL CHARGE = 1.00955e-06 e
Info: ADDED 6758 IMPLICIT EXCLUSIONS
Info: NONBONDED TABLE R-SQUARED SPACING: 0.0625
Info: NONBONDED TABLE SIZE: 769 POINTS
Info: ORIGINAL ATOMS MINMAX IS 16.112 13.611 -0.111  43.99 45.056 34.599
Info: ADJUSTED ATOMS MINMAX IS 19.9306 17.188 3.95938  41.1944 40.748 26.7456
Info: REMOVING COM VELOCITY -0.192296 0.0667737 0.169623
Info: 1 SMD ATOMS
TCL: Running for 50000 steps
ETITLE: TS BOND ANGLE DIHED IMPRP ELECT VDW BOUNDARY MISC KINETIC TOTAL TEMP POTENTIAL TOTAL3 TEMPAVG
ENERGY: 0 234.9278 727.3285 310.6052 39.7284 -1682.2327 -287.1966 0.0000 0.0000 892.2869 235.4473 293.3807 -656.8396 247.3378 293.3807
ENERGY: 10000 331.1044 953.4672 408.2834 61.8488 -2591.6179 -140.1828 0.0000 2.1840 1304.8933 329.9805 429.0442 -974.9128 343.7211 433.8641
ENERGY: 20000 350.0648 1021.2540 442.3220 61.3347 -2649.4355 -147.1807 0.0000 31.7741 1345.8611 455.9946 442.5143 -889.8665 471.7596 448.1573
ENERGY: 30000 391.6761 1034.5622 464.4265 69.7198 -2596.5547 -124.2053 0.0000 13.6560 1431.2385 684.5192 470.5861 -746.7194 701.6958 474.7679
ENERGY: 40000 399.1566 1077.9858 449.0627 88.8407 -2591.1850 -111.2193 0.0000 85.3009 1510.1934 908.1359 496.5461 -602.0575 926.1523 499.5854
ENERGY: 50000 396.7912 1146.4495 453.8947 76.4606 -2519.3207 -70.8563 0.0000 0.0657 1780.7050 1264.1896 585.4894 -516.5154 1283.3957 583.3884
