Info: SIMULATION PARAMETERS:
Info: TIMESTEP               2
Info: NUMBER OF STEPS        50000
Info: STEPS PER CYCLE        10
Info: FIRST LDB TIMESTEP     50
Info: LAST LDB TIMESTEP     -1
Info: HOM BACKGROUND SCALING 1
Info: MIN ATOMS PER PATCH    40
Info: EMPTY PATCH LOAD       40 ATOMS
Info: VELOCITY FILE          ubq_ww_pcv.restart.vel
Info: CENTER OF MASS MOVING INITIALLY? NO
Info: DIELECTRIC             1
Info: EXCLUDE                SCALED ONE-FOUR
Info: 1-4 ELECTROSTATICS SCALED BY 1
Info: MODIFIED 1-4 VDW PARAMETERS WILL BE USED
Info: DCD FILENAME           ubq_ww_pcv1.dcd
Info: DCD FREQUENCY          10
Info: DCD FIRST STEP         50010
Info: XST FILENAME           ubq_ww_pcv1.xst
Info: XST FREQUENCY          500
Info: NO VELOCITY DCD OUTPUT
Info: NO FORCE DCD OUTPUT
Info: OUTPUT FILENAME        ubq_ww_pcv1
Info: BINARY OUTPUT FILES WILL BE USED
Info: RESTART FILENAME       ubq_ww_pcv1.restart
Info: RESTART FREQUENCY      500
Info: BINARY RESTART FILES WILL BE USED
Info: SWITCHING ACTIVE
Info: SWITCHING ON           10
Info: SWITCHING OFF          12
Info: PAIRLIST DISTANCE      14
Info: PAIRLIST SHRINK RATE   0.01
Info: PAIRLIST GROW RATE     0.01
Info: PAIRLIST TRIGGER       0.3
Info: PAIRLISTS PER CYCLE    2
Info: PAIRLISTS ENABLED
Info: MARGIN                 0
Info: HYDROGEN GROUP CUTOFF  2.5
Info: PATCH DIMENSION        16.5
Info: ENERGY OUTPUT STEPS    10
Info: ENERGY EVALUATION STEPS    10
Info: OUTPUT ENERGY PRECISION 4
Info: OUPUT ENERGY PRECISION 4
Info: CROSSTERM ENERGY INCLUDED IN DIHEDRAL
Info: TIMING OUTPUT STEPS    100
Info: PRESSURE OUTPUT STEPS  10
Info: FIXED ATOMS ACTIVE
Info: SMD ACTIVE
Info: SMD VELOCITY    0.001 ANGSTROM/TIMESTEP
Info: SMD DIRECTION   0.27547 0.530871 0.801431
Info: SMD K   7
Info: SMD K2  0
Info: SMD OUTPUT FREQUENCY   10 TIMESTEPS
Info: SMD FILE ../common/ubq_ww_eq.smd.pdb
Info: USING VERLET I (r-RESPA) MTS SCHEME.
Info: C1 SPLITTING OF LONG RANGE ELECTROSTATICS
Info: PLACING ATOMS IN PATCHES BY HYDROGEN GROUPS
Info: RIGID BONDS TO HYDROGEN : ALL
Info:         ERROR TOLERANCE : 1e-08
Info:          MAX ITERATIONS : 100
Info: RIGID WATER USING SETTLE ALGORITHM
Info: RANDOM NUMBER SEED     1716544668
Info: USE HYDROGEN BONDS?    NO
Info: COORDINATE PDB         ../common/ubq_ww_eq.pdb
Info: STRUCTURE FILE         ../common/ubq.psf
Info: PARAMETER file: CHARMM format!
Info: PARAMETERS             ../common/par_all27_prot_lipid.inp
Info: USING ARITHMETIC MEAN TO COMBINE L-J SIGMA PARAMETERS
Info: BINARY COORDINATES     ubq_ww_pcv.restart.coor
Info: FIRST TIMESTEP         50000
Info: SUMMARY OF PARAMETERS:
Info: 180 BONDS
Info: 447 ANGLES
Info: 566 DIHEDRAL
Info: 46 IMPROPER
Info: 6 CROSSTERM
Info: 119 VDW
Info: 0 VDW_PAIRS
Info: 0 NBTHOLE_PAIRS
Info: STRUCTURE SUMMARY:
Info: 1231 ATOMS
Info: 1237 BONDS
Info: 2257 ANGLES
Info: 3293 DIHEDRALS
Info: 204 IMPROPERS
Info: 74 CROSSTERMS
Info: 0 EXCLUSIONS
Info: 1 FIXED ATOMS
Info: 629 RIGID BONDS
Info: 0 RIGID BONDS BETWEEN FIXED ATOMS
Info: 3061 DEGREES OF FREEDOM
Info: 602 HYDROGEN GROUPS
Info: 4 ATOMS IN LARGEST HYDROGEN GROUP
Info: 602 MIGRATION GROUPS
Info: 4 ATOMS IN LARGEST MIGRATION GROUP
Info: 0 HYDROGEN GROUPS WITH ALL ATOMS FIXED
Info: TOTAL MASS = 8564.87 amu
Info: TOTAL CHARGE = 1.00955e-06 e
Info: ADDED 6758 IMPLICIT EXCLUSIONS
Info: NONBONDED TABLE R-SQUARED SPACING: 0.0625
Info: NONBONDED TABLE SIZE: 769 POINTS
Info: ORIGINAL ATOMS MINMAX IS 25.3495 18.3259 1.54183  56.7943 72.0168 74.0876
Info: ADJUSTED ATOMS MINMAX IS 28.7392 32.7449 15.0585  53.6347 65.8071 60.4364
Info: REMOVING COM VELOCITY 0.591912 1.6952 2.41112
Info: 1 SMD ATOMS
TCL: Running for 20000 steps
ETITLE: TS BOND ANGLE DIHED IMPRP ELECT VDW BOUNDARY MISC KINETIC TOTAL TEMP POTENTIAL TOTAL3 TEMPAVG
ENERGY: 50000 396.7912 1146.4495 453.8947 76.4606 -2519.3207 -70.8563 0.0000 0.0657 1688.0719 1171.5565 555.0320 -516.5154 1191.1683 555.0320
ENERGY: 54000 426.3905 1132.9724 466.3247 83.9279 -2576.8340 -55.4466 0.0000 18.0488 1708.6049 1203.9886 561.7831 -504.6163 1226.1163 550.8119
ENERGY: 58000 426.6375 1203.6946 468.5673 73.3172 -2558.6790 -41.1399 0.0000 18.5275 1650.8554 1241.7805 542.7953 -409.0748 1262.6099 553.2330
ENERGY: 62000 414.8935 1254.6860 464.0230 95.6408 -2522.0255 -83.6860 0.0000 20.9649 1656.7977 1301.2945 544.7491 -355.5032 1319.9021 556.8236
ENERGY: 66000 415.9195 1140.1983 478.8908 85.8162 -2493.9974 -50.2953 0.0000 19.6088 1756.3858 1352.5267 577.4933 -403.8591 1375.7413 573.2756
ENERGY: 70000 458.8541 1178.0998 479.0259 78.6137 -2515.4260 -51.6953 0.0000 16.2846 1770.7895 1414.5462 582.2292 -356.2433 1437.8177 574.4178
