Info: SIMULATION PARAMETERS:
Info: TIMESTEP               2
Info: NUMBER OF STEPS        0
Info: STEPS PER CYCLE        10
Info: FIRST LDB TIMESTEP     50
Info: LAST LDB TIMESTEP     -1
Info: HOM BACKGROUND SCALING 1
Info: MIN ATOMS PER PATCH    40
Info: EMPTY PATCH LOAD       40 ATOMS
Info: INITIAL TEMPERATURE    310
Info: CENTER OF MASS MOVING INITIALLY? NO
Info: DIELECTRIC             1
Info: EXCLUDE                SCALED ONE-FOUR
Info: 1-4 ELECTROSTATICS SCALED BY 1
Info: MODIFIED 1-4 VDW PARAMETERS WILL BE USED
Info: DCD FILENAME           ubq_gbis_eq.dcd
Info: DCD FREQUENCY          250
Info: DCD FIRST STEP         250
Info: XST FILENAME           ubq_gbis_eq.xst
Info: XST FREQUENCY          250
Info: NO VELOCITY DCD OUTPUT
Info: NO FORCE DCD OUTPUT
Info: OUTPUT FILENAME        ubq_gbis_eq
Info: BINARY OUTPUT FILES WILL BE USED
Info: RESTART FILENAME       ubq_gbis_eq.restart
Info: RESTART FREQUENCY      500
Info: BINARY RESTART FILES WILL BE USED
Info: SWITCHING ACTIVE
Info: SWITCHING ON           13
Info: SWITCHING OFF          14
Info: PAIRLIST DISTANCE      16
Info: PAIRLIST SHRINK RATE   0.01
Info: PAIRLIST GROW RATE     0.01
Info: PAIRLIST TRIGGER       0.3
Info: PAIRLISTS PER CYCLE    2
Info: PAIRLISTS ENABLED
Info: MARGIN                 0
Info: HYDROGEN GROUP CUTOFF  2.5
Info: PATCH DIMENSION        18.5
Info: ENERGY OUTPUT STEPS    100
Info: ENERGY EVALUATION STEPS    100
Info: OUTPUT ENERGY PRECISION 4
Info: OUPUT ENERGY PRECISION 4
Info: CROSSTERM ENERGY INCLUDED IN DIHEDRAL
Info: TIMING OUTPUT STEPS    1000
Info: PRESSURE OUTPUT STEPS  100
Info: GBIS GENERALIZED BORN IMPLICIT SOLVENT ACTIVE
Info: GBIS SOLVENT DIELECTRIC: 78.5
Info: GBIS PROTEIN DIELECTRIC: 1
Info: GBIS COULOMB RADIUS OFFSET: 0.09 Ang
Info: GBIS ION CONCENTRATION: 0.3 M
Info: GBIS DEBYE SCREENING LENGTH: 5.66311 Ang
Info: GBIS DELTA: 1
Info: GBIS BETA: 0.8
Info: GBIS GAMMA: 4.85
Info: GBIS BORN RADIUS CUTOFF: 12 Ang
Info: GBIS MAX BORN RADIUS: 30 Ang
Info: LANGEVIN DYNAMICS ACTIVE
Info: LANGEVIN TEMPERATURE   310
Info: LANGEVIN USING BBK INTEGRATOR
Info: LANGEVIN DAMPING COEFFICIENT IS 1 INVERSE PS
Info: LANGEVIN DYNAMICS NOT APPLIED TO HYDROGENS
Info: FULL ELECTROSTATIC EVALUATION FREQUENCY      2
Info: USING VERLET I (r-RESPA) MTS SCHEME.
Info: C1 SPLITTING OF LONG RANGE ELECTROSTATICS
Info: PLACING ATOMS IN PATCHES BY HYDROGEN GROUPS
Info: RIGID BONDS TO HYDROGEN : ALL
Info:         ERROR TOLERANCE : 1e-08
Info:          MAX ITERATIONS : 100
Info: RIGID WATER USING SETTLE ALGORITHM
Info: RANDOM NUMBER SEED     1715858764
Info: USE HYDROGEN BONDS?    NO
Info: COORDINATE PDB         ../common/example-output/ubq.pdb
Info: STRUCTURE FILE         ../common/example-output/ubq.psf
Info: PARAMETER file: CHARMM format!
Info: PARAMETERS             ../common/par_all27_prot_lipid.inp
Info: USING ARITHMETIC MEAN TO COMBINE L-J SIGMA PARAMETERS
Info: SUMMARY OF PARAMETERS:
Info: 180 BONDS
Info: 447 ANGLES
Info: 566 DIHEDRAL
Info: 46 IMPROPER
Info: 6 CROSSTERM
Info: 119 VDW
Info: 0 VDW_PAIRS
Info: 0 NBTHOLE_PAIRS
Info: STRUCTURE SUMMARY:
Info: 1231 ATOMS
Info: 1237 BONDS
Info: 2257 ANGLES
Info: 3293 DIHEDRALS
Info: 204 IMPROPERS
Info: 74 CROSSTERMS
Info: 0 EXCLUSIONS
Info: 629 RIGID BONDS
Info: 3064 DEGREES OF FREEDOM
Info: 602 HYDROGEN GROUPS
Info: 4 ATOMS IN LARGEST HYDROGEN GROUP
Info: 602 MIGRATION GROUPS
Info: 4 ATOMS IN LARGEST MIGRATION GROUP
Info: TOTAL MASS = 8564.87 amu
Info: TOTAL CHARGE = 1.00955e-06 e
Info: ADDED 6758 IMPLICIT EXCLUSIONS
Info: NONBONDED TABLE R-SQUARED SPACING: 0.0625
Info: NONBONDED TABLE SIZE: 769 POINTS
Info: ORIGINAL ATOMS MINMAX IS 15.44 12.888 -0.366  46.125 45.268 35.925
Info: ADJUSTED ATOMS MINMAX IS 19.3719 17.8135 3.83663  41.9631 39.5985 26.7604
Info: REMOVING COM VELOCITY -0.335501 -0.084409 -0.00353266
TCL: Minimizing for 100 steps
ETITLE: TS BOND ANGLE DIHED IMPRP ELECT VDW BOUNDARY MISC KINETIC TOTAL TEMP POTENTIAL TOTAL3 TEMPAVG
ENERGY: 0 263.6137 847.5817 263.7656 10.7299 -3010.8892 552.3627 0.0000 0.0000 0.0000 -1072.8357 0.0000 -1072.8357 -1072.8357 0.0000
ENERGY: 20 50.9225 415.7062 266.2046 14.9222 -3034.8144 -241.5921 0.0000 0.0000 0.0000 -2528.6511 0.0000 -2528.6511 -2528.6511 0.0000
ENERGY: 40 58.1139 250.8550 263.9183 8.7780 -3056.5701 -301.4122 0.0000 0.0000 0.0000 -2776.3170 0.0000 -2776.3170 -2776.3170 0.0000
ENERGY: 60 46.9700 220.7030 255.8554 5.3915 -3068.6582 -337.9924 0.0000 0.0000 0.0000 -2877.7307 0.0000 -2877.7307 -2877.7307 0.0000
ENERGY: 80 55.3927 199.1153 255.5411 5.0564 -3078.3358 -360.5915 0.0000 0.0000 0.0000 -2923.8218 0.0000 -2923.8218 -2923.8218 0.0000
ENERGY: 100 59.7271 205.4928 248.0329 5.3344 -3091.5992 -375.0683 0.0000 0.0000 0.0000 -2948.0804 0.0000 -2948.0804 -2948.0804 0.0000
TCL: Running for 2500 steps
ETITLE: TS BOND ANGLE DIHED IMPRP ELECT VDW BOUNDARY MISC KINETIC TOTAL TEMP POTENTIAL TOTAL3 TEMPAVG
ENERGY: 100 59.7271 205.4928 248.0329 5.3344 -3091.5992 -375.0683 0.0000 0.0000 914.5328 -2033.5477 300.4007 -2948.0804 -2034.4519 300.4007
ENERGY: 600 195.5199 562.4195 275.6350 31.5548 -3111.0632 -333.3639 0.0000 0.0000 716.1260 -1663.1719 235.2291 -2379.2979 -1656.0195 230.9868
ENERGY: 1100 232.3752 590.1292 284.0634 34.9476 -3132.4384 -311.2936 0.0000 0.0000 766.7129 -1535.5035 251.8456 -2302.2165 -1526.0188 254.4188
ENERGY: 1600 234.9732 631.7735 278.7972 36.7531 -3134.8213 -314.1179 0.0000 0.0000 848.0711 -1418.5711 278.5697 -2266.6422 -1408.3603 272.3015
ENERGY: 2100 242.3736 660.1463 286.3108 34.3358 -3111.5167 -328.9070 0.0000 0.0000 839.8160 -1377.4412 275.8581 -2217.2573 -1366.7981 278.1350
ENERGY: 2600 245.0877 686.3869 292.1022 37.3623 -3137.8477 -305.5003 0.0000 0.0000 898.9774 -1283.4315 295.2911 -2182.4089 -1273.8079 295.2100
