Info: SIMULATION PARAMETERS:
Info: TIMESTEP               2
Info: NUMBER OF STEPS        0
Info: STEPS PER CYCLE        10
Info: PERIODIC CELL BASIS 1  42 0 0
Info: PERIODIC CELL BASIS 2  0 44 0
Info: PERIODIC CELL BASIS 3  0 0 47
Info: PERIODIC CELL CENTER   31 29 17.5
Info: WRAPPING ALL CLUSTERS AROUND PERIODIC BOUNDARIES ON OUTPUT.
Info: FIRST LDB TIMESTEP     50
Info: LAST LDB TIMESTEP     -1
Info: HOM BACKGROUND SCALING 1
Info: PME BACKGROUND SCALING 1
Info: MIN ATOMS PER PATCH    40
Info: EMPTY PATCH LOAD       40 ATOMS
Info: INITIAL TEMPERATURE    310
Info: CENTER OF MASS MOVING INITIALLY? NO
Info: DIELECTRIC             1
Info: EXCLUDE                SCALED ONE-FOUR
Info: 1-4 ELECTROSTATICS SCALED BY 1
Info: MODIFIED 1-4 VDW PARAMETERS WILL BE USED
Info: DCD FILENAME           ubq_wb_pcf0.dcd
Info: DCD FREQUENCY          10
Info: DCD FIRST STEP         10
Info: DCD FILE WILL CONTAIN UNIT CELL DATA
Info: XST FILENAME           ubq_wb_pcf0.xst
Info: XST FREQUENCY          250
Info: NO VELOCITY DCD OUTPUT
Info: NO FORCE DCD OUTPUT
Info: OUTPUT FILENAME        ubq_wb_pcf0
Info: BINARY OUTPUT FILES WILL BE USED
Info: RESTART FILENAME       ubq_wb_pcf0.restart
Info: RESTART FREQUENCY      500
Info: BINARY RESTART FILES WILL BE USED
Info: SWITCHING ACTIVE
Info: SWITCHING ON           10
Info: SWITCHING OFF          12
Info: PAIRLIST DISTANCE      14
Info: PAIRLIST SHRINK RATE   0.01
Info: PAIRLIST GROW RATE     0.01
Info: PAIRLIST TRIGGER       0.3
Info: PAIRLISTS PER CYCLE    2
Info: PAIRLISTS ENABLED
Info: MARGIN                 0.495
Info: HYDROGEN GROUP CUTOFF  2.5
Info: PATCH DIMENSION        16.995
Info: ENERGY OUTPUT STEPS    10
Info: ENERGY EVALUATION STEPS    10
Info: OUTPUT ENERGY PRECISION 4
Info: OUPUT ENERGY PRECISION 4
Info: CROSSTERM ENERGY INCLUDED IN DIHEDRAL
Info: TIMING OUTPUT STEPS    100
Info: PRESSURE OUTPUT STEPS  10
Info: FIXED ATOMS ACTIVE
Info: CONSTANT FORCE ACTIVE
Info: LANGEVIN PISTON PRESSURE CONTROL ACTIVE
Info:        TARGET PRESSURE IS 1.01325 BAR
Info:     OSCILLATION PERIOD IS 100 FS
Info:             DECAY TIME IS 50 FS
Info:     PISTON TEMPERATURE IS 310 K
Info:       PRESSURE CONTROL IS GROUP-BASED
Info:    INITIAL STRAIN RATE IS 0 0 0
Info:       CELL FLUCTUATION IS ISOTROPIC
Info: PARTICLE MESH EWALD (PME) ACTIVE
Info: PME TOLERANCE               1e-06
Info: PME EWALD COEFFICIENT       0.257952
Info: PME INTERPOLATION ORDER     4
Info: PME GRID DIMENSIONS         44 44 48
Info: PME MAXIMUM GRID SPACING    1
Info: FULL ELECTROSTATIC EVALUATION FREQUENCY      2
Info: USING VERLET I (r-RESPA) MTS SCHEME.
Info: C1 SPLITTING OF LONG RANGE ELECTROSTATICS
Info: PLACING ATOMS IN PATCHES BY HYDROGEN GROUPS
Info: RIGID BONDS TO HYDROGEN : ALL
Info:         ERROR TOLERANCE : 1e-08
Info:          MAX ITERATIONS : 100
Info: RIGID WATER USING SETTLE ALGORITHM
Info: RANDOM NUMBER SEED     1716556129
Info: USE HYDROGEN BONDS?    NO
Info: COORDINATE PDB         ../common/ubq_wb_eq.pdb
Info: STRUCTURE FILE         ../common/ubq_wb.psf
Info: PARAMETER file: CHARMM format!
Info: PARAMETERS             ../common/par_all27_prot_lipid.inp
Info: USING ARITHMETIC MEAN TO COMBINE L-J SIGMA PARAMETERS
Info: SUMMARY OF PARAMETERS:
Info: 180 BONDS
Info: 447 ANGLES
Info: 566 DIHEDRAL
Info: 46 IMPROPER
Info: 6 CROSSTERM
Info: 119 VDW
Info: 0 VDW_PAIRS
Info: 0 NBTHOLE_PAIRS
Info: STRUCTURE SUMMARY:
Info: 7051 ATOMS
Info: 5117 BONDS
Info: 4197 ANGLES
Info: 3293 DIHEDRALS
Info: 204 IMPROPERS
Info: 74 CROSSTERMS
Info: 0 EXCLUSIONS
Info: 1 CONSTANT FORCES
Info: 1 FIXED ATOMS
Info: 6449 RIGID BONDS
Info: 0 RIGID BONDS BETWEEN FIXED ATOMS
Info: 14701 DEGREES OF FREEDOM
Info: 2542 HYDROGEN GROUPS
Info: 4 ATOMS IN LARGEST HYDROGEN GROUP
Info: 2542 MIGRATION GROUPS
Info: 4 ATOMS IN LARGEST MIGRATION GROUP
Info: 0 HYDROGEN GROUPS WITH ALL ATOMS FIXED
Info: TOTAL MASS = 43514.7 amu
Info: TOTAL CHARGE = 1.00955e-06 e
Info: MASS DENSITY = 0.831947 g/cm^3
Info: ATOM DENSITY = 0.0811803 atoms/A^3
Info: ADDED 12578 IMPLICIT EXCLUSIONS
Info: NONBONDED TABLE R-SQUARED SPACING: 0.0625
Info: NONBONDED TABLE SIZE: 769 POINTS
Info: REMOVING COM VELOCITY -0.0366585 0.0711049 -0.147703
TCL: Running for 50000 steps
ETITLE: TS BOND ANGLE DIHED IMPRP ELECT VDW BOUNDARY MISC KINETIC TOTAL TEMP POTENTIAL TOTAL3 TEMPAVG PRESSURE GPRESSURE VOLUME PRESSAVG GPRESSAVG
ENERGY: 0 209.4581 723.7979 328.5840 38.8007 -21414.7463 1417.7383 0.0000 0.0000 4510.1349 -14186.2324 308.7685 -18696.3673 -14167.1315 308.7685 895.0576 918.0577 86856.0000 895.0576 918.0577
ENERGY: 10000 283.8931 815.5170 308.2872 55.3714 -22099.7055 1139.2650 0.0000 0.0000 5351.5375 -14145.8342 366.3718 -19497.3717 -14124.1604 372.0743 -142.2100 -105.9588 72767.3330 -17.5277 -18.6539
ENERGY: 20000 266.1070 746.3456 338.8645 55.0877 -22294.5635 1366.9704 0.0000 0.0000 5400.5063 -14120.6819 369.7243 -19521.1883 -14099.9487 369.0572 112.5560 138.3481 73447.4870 184.2166 183.7396
ENERGY: 30000 260.3294 807.4059 329.2359 49.0366 -22268.0174 1358.4605 0.0000 0.0000 5316.3429 -14147.2063 363.9624 -19463.5492 -14127.5535 368.5503 166.3731 205.1310 73060.8255 159.8309 159.7292
ENERGY: 40000 306.0580 768.4295 325.0763 48.6934 -22404.5413 1344.4058 0.0000 0.0000 5457.0571 -14154.8213 373.5958 -19611.8784 -14134.2991 370.3442 -272.7888 -241.0488 73829.9928 33.7087 33.7727
ENERGY: 50000 256.4294 813.9573 347.3627 53.2177 -22231.0136 1312.8756 0.0000 0.0000 5274.1389 -14173.0320 361.0730 -19447.1709 -14152.1009 362.2565 566.7428 600.1340 72687.2668 -64.4422 -65.8457
