Info: SIMULATION PARAMETERS:
Info: TIMESTEP               2
Info: NUMBER OF STEPS        0
Info: STEPS PER CYCLE        10
Info: FIRST LDB TIMESTEP     50
Info: LAST LDB TIMESTEP     -1
Info: HOM BACKGROUND SCALING 1
Info: MIN ATOMS PER PATCH    40
Info: EMPTY PATCH LOAD       40 ATOMS
Info: INITIAL TEMPERATURE    310
Info: CENTER OF MASS MOVING INITIALLY? NO
Info: DIELECTRIC             1
Info: EXCLUDE                SCALED ONE-FOUR
Info: 1-4 ELECTROSTATICS SCALED BY 1
Info: MODIFIED 1-4 VDW PARAMETERS WILL BE USED
Info: DCD FILENAME           ubq_ws_eq.dcd
Info: DCD FREQUENCY          10
Info: DCD FIRST STEP         10
Info: NO EXTENDED SYSTEM TRAJECTORY OUTPUT
Info: NO VELOCITY DCD OUTPUT
Info: NO FORCE DCD OUTPUT
Info: OUTPUT FILENAME        ubq_ws_eq
Info: BINARY OUTPUT FILES WILL BE USED
Info: RESTART FILENAME       ubq_ws_eq.restart
Info: RESTART FREQUENCY      500
Info: BINARY RESTART FILES WILL BE USED
Info: SWITCHING ACTIVE
Info: SWITCHING ON           10
Info: SWITCHING OFF          12
Info: PAIRLIST DISTANCE      14
Info: PAIRLIST SHRINK RATE   0.01
Info: PAIRLIST GROW RATE     0.01
Info: PAIRLIST TRIGGER       0.3
Info: PAIRLISTS PER CYCLE    2
Info: PAIRLISTS ENABLED
Info: MARGIN                 0
Info: HYDROGEN GROUP CUTOFF  2.5
Info: PATCH DIMENSION        16.5
Info: ENERGY OUTPUT STEPS    10
Info: ENERGY EVALUATION STEPS    10
Info: OUTPUT ENERGY PRECISION 4
Info: OUPUT ENERGY PRECISION 4
Info: CROSSTERM ENERGY INCLUDED IN DIHEDRAL
Info: TIMING OUTPUT STEPS    100
Info: PRESSURE OUTPUT STEPS  10
Info: SPHERICAL BOUNDARY CONDITIONS ACTIVE
Info: RADIUS #1              26
Info: FORCE CONSTANT #1      10
Info: EXPONENT #1            2
Info: SPHERE BOUNDARY CENTER(30.3082, 28.805, 15.354)
Info: LANGEVIN DYNAMICS ACTIVE
Info: LANGEVIN TEMPERATURE   310
Info: LANGEVIN USING BBK INTEGRATOR
Info: LANGEVIN DAMPING COEFFICIENT IS 1 INVERSE PS
Info: LANGEVIN DYNAMICS NOT APPLIED TO HYDROGENS
Info: MULTILEVEL SUMMATION METHOD (MSM) FOR ELECTROSTATICS ACTIVE
Info: MSM WITH C1 CUBIC INTERPOLATION AND C2 TAYLOR SPLITTING
Info: FULL ELECTROSTATIC EVALUATION FREQUENCY      2
Info: USING VERLET I (r-RESPA) MTS SCHEME.
Info: C1 SPLITTING OF LONG RANGE ELECTROSTATICS
Info: PLACING ATOMS IN PATCHES BY HYDROGEN GROUPS
Info: RIGID BONDS TO HYDROGEN : ALL
Info:         ERROR TOLERANCE : 1e-08
Info:          MAX ITERATIONS : 100
Info: RIGID WATER USING SETTLE ALGORITHM
Info: RANDOM NUMBER SEED     1716368652
Info: USE HYDROGEN BONDS?    NO
Info: COORDINATE PDB         ../common/ubq_ws.pdb
Info: STRUCTURE FILE         ../common/ubq_ws.psf
Info: PARAMETER file: CHARMM format!
Info: PARAMETERS             ../common/par_all27_prot_lipid.inp
Info: USING ARITHMETIC MEAN TO COMBINE L-J SIGMA PARAMETERS
Info: SUMMARY OF PARAMETERS:
Info: 180 BONDS
Info: 447 ANGLES
Info: 566 DIHEDRAL
Info: 46 IMPROPER
Info: 6 CROSSTERM
Info: 119 VDW
Info: 0 VDW_PAIRS
Info: 0 NBTHOLE_PAIRS
Info: STRUCTURE SUMMARY:
Info: 6682 ATOMS
Info: 4871 BONDS
Info: 4074 ANGLES
Info: 3293 DIHEDRALS
Info: 204 IMPROPERS
Info: 74 CROSSTERMS
Info: 0 EXCLUSIONS
Info: 6080 RIGID BONDS
Info: 13966 DEGREES OF FREEDOM
Info: 2419 HYDROGEN GROUPS
Info: 4 ATOMS IN LARGEST HYDROGEN GROUP
Info: 2419 MIGRATION GROUPS
Info: 4 ATOMS IN LARGEST MIGRATION GROUP
Info: TOTAL MASS = 41298.8 amu
Info: TOTAL CHARGE = 1.00955e-06 e
Info: ADDED 12209 IMPLICIT EXCLUSIONS
Info: NONBONDED TABLE R-SQUARED SPACING: 0.0625
Info: NONBONDED TABLE SIZE: 769 POINTS
Info: REMOVING COM VELOCITY -0.0153211 -0.137689 0.126179
Info: MSM extending minimum X to -5 A
Info: MSM extending maximum X to 60 A
Info: MSM extending minimum Y to -5 A
Info: MSM extending maximum Y to 60 A
Info: MSM extending minimum Z to -15 A
Info: MSM extending maximum Z to 46 A
Info: MSM using C1 cubic interpolation
Info: MSM using C2 Taylor splitting function
Info: MSM block size decomposition along X is 8 grid points
Info: MSM block size decomposition along Y is 8 grid points
Info: MSM block size decomposition along Z is 8 grid points
Info: MSM grid spacing is 2.5 A
Info: MSM non-periodic padding is 2.5 A
Info: MSM using 3 levels
Info:     level 0:  [-1..31] x [-1..31] x [-1..29]
Info:     level 1:  [-2..17] x [-2..17] x [-2..16]
Info:     level 2:  [-2..10] x [-2..10] x [-2..9]
Info: MSM finished calculating stencils
Info: MSM finished creating map for grid levels
Info: MSM finished creating map for patches
Info: MSM has 64 interpolation / anterpolation objects (one per patch)
Info: MSM grid level 0 decomposed into 100 blocks ( 5 x 5 x 4 )
Info: MSM grid level 1 decomposed into 27 blocks ( 3 x 3 x 3 )
Info: MSM grid level 2 decomposed into 8 blocks ( 2 x 2 x 2 )
Info: MSM grid cutoff calculation decomposed into 4627 work objects
TCL: Minimizing for 4000 steps
ETITLE: TS BOND ANGLE DIHED IMPRP ELECT VDW BOUNDARY MISC KINETIC TOTAL TEMP POTENTIAL TOTAL3 TEMPAVG
ENERGY: 0 263.6137 847.5817 263.7656 10.7299 -17411.2456 1948.8251 69.9277 0.0000 0.0000 -14006.8018 0.0000 -14006.8018 -14006.8018 0.0000
ENERGY: 800 60.2416 208.9866 220.9849 6.4662 -26181.4840 2534.6853 0.4185 0.0000 0.0000 -23149.7009 0.0000 -23149.7009 -23149.7009 0.0000
ENERGY: 1600 58.1926 202.2721 219.4470 6.5621 -27331.9059 2921.5566 0.0165 0.0000 0.0000 -23923.8589 0.0000 -23923.8589 -23923.8589 0.0000
ENERGY: 2400 54.4714 202.2937 217.7513 6.4654 -27767.5368 3037.3987 0.0055 0.0000 0.0000 -24249.1507 0.0000 -24249.1507 -24249.1507 0.0000
ENERGY: 3200 53.1691 204.5304 220.7585 6.6387 -27967.3931 3101.1736 0.3241 0.0000 0.0000 -24380.7987 0.0000 -24380.7987 -24380.7987 0.0000
ENERGY: 4000 53.8390 207.2341 220.8438 7.0243 -28064.0345 3124.4691 0.0152 0.0000 0.0000 -24450.6090 0.0000 -24450.6090 -24450.6090 0.0000
TCL: Running for 20000 steps
ETITLE: TS BOND ANGLE DIHED IMPRP ELECT VDW BOUNDARY MISC KINETIC TOTAL TEMP POTENTIAL TOTAL3 TEMPAVG
ENERGY: 4000 53.8390 207.2341 220.8438 7.0243 -28064.0345 3124.4691 0.0152 0.0000 4336.0547 -20114.5543 312.4734 -24450.6090 -20117.0305 312.4734
ENERGY: 8000 240.6350 679.7152 309.7646 33.2371 -22363.3013 1619.6923 3.3533 0.0000 4083.3329 -15393.5709 294.2613 -19476.9038 -15377.4094 296.5484
ENERGY: 12000 225.6522 708.8278 309.2271 34.7957 -22038.3679 1484.8838 0.9990 0.0000 4284.1055 -14989.8767 308.7298 -19273.9822 -14971.9993 308.2651
ENERGY: 16000 235.0281 724.9121 310.9491 36.0714 -22147.0768 1592.1632 2.5531 0.0000 4301.6980 -14943.7017 309.9976 -19245.3997 -14923.9097 308.7933
ENERGY: 20000 246.2886 682.4566 304.9672 38.2693 -22017.2730 1525.6795 5.2533 0.0000 4314.6776 -14899.6808 310.9329 -19214.3584 -14881.5261 307.6806
ENERGY: 24000 235.0141 727.2435 310.5753 39.7353 -22063.7220 1572.3593 3.7379 0.0000 4274.5202 -14900.5364 308.0390 -19175.0566 -14882.2611 308.0288
