Info: SIMULATION PARAMETERS:
Info: TIMESTEP               2
Info: NUMBER OF STEPS        0
Info: STEPS PER CYCLE        10
Info: PERIODIC CELL BASIS 1  42 0 0
Info: PERIODIC CELL BASIS 2  0 44 0
Info: PERIODIC CELL BASIS 3  0 0 47
Info: PERIODIC CELL CENTER   31 29 17.5
Info: WRAPPING ALL CLUSTERS AROUND PERIODIC BOUNDARIES ON OUTPUT.
Info: FIRST LDB TIMESTEP     50
Info: LAST LDB TIMESTEP     -1
Info: HOM BACKGROUND SCALING 1
Info: PME BACKGROUND SCALING 1
Info: MIN ATOMS PER PATCH    40
Info: EMPTY PATCH LOAD       40 ATOMS
Info: INITIAL TEMPERATURE    310
Info: CENTER OF MASS MOVING INITIALLY? NO
Info: DIELECTRIC             1
Info: EXCLUDE                SCALED ONE-FOUR
Info: 1-4 ELECTROSTATICS SCALED BY 1
Info: MODIFIED 1-4 VDW PARAMETERS WILL BE USED
Info: DCD FILENAME           ubq_wb_eq0.dcd
Info: DCD FREQUENCY          10
Info: DCD FIRST STEP         10
Info: DCD FILE WILL CONTAIN UNIT CELL DATA
Info: XST FILENAME           ubq_wb_eq0.xst
Info: XST FREQUENCY          250
Info: NO VELOCITY DCD OUTPUT
Info: NO FORCE DCD OUTPUT
Info: OUTPUT FILENAME        ubq_wb_eq0
Info: BINARY OUTPUT FILES WILL BE USED
Info: RESTART FILENAME       ubq_wb_eq0.restart
Info: RESTART FREQUENCY      500
Info: BINARY RESTART FILES WILL BE USED
Info: SWITCHING ACTIVE
Info: SWITCHING ON           10
Info: SWITCHING OFF          12
Info: PAIRLIST DISTANCE      14
Info: PAIRLIST SHRINK RATE   0.01
Info: PAIRLIST GROW RATE     0.01
Info: PAIRLIST TRIGGER       0.3
Info: PAIRLISTS PER CYCLE    2
Info: PAIRLISTS ENABLED
Info: MARGIN                 0.495
Info: HYDROGEN GROUP CUTOFF  2.5
Info: PATCH DIMENSION        16.995
Info: ENERGY OUTPUT STEPS    10
Info: ENERGY EVALUATION STEPS    10
Info: OUTPUT ENERGY PRECISION 4
Info: OUPUT ENERGY PRECISION 4
Info: CROSSTERM ENERGY INCLUDED IN DIHEDRAL
Info: TIMING OUTPUT STEPS    100
Info: PRESSURE OUTPUT STEPS  10
Info: LANGEVIN DYNAMICS ACTIVE
Info: LANGEVIN TEMPERATURE   310
Info: LANGEVIN USING BBK INTEGRATOR
Info: LANGEVIN DAMPING COEFFICIENT IS 1 INVERSE PS
Info: LANGEVIN DYNAMICS NOT APPLIED TO HYDROGENS
Info: LANGEVIN PISTON PRESSURE CONTROL ACTIVE
Info:        TARGET PRESSURE IS 1.01325 BAR
Info:     OSCILLATION PERIOD IS 100 FS
Info:             DECAY TIME IS 50 FS
Info:     PISTON TEMPERATURE IS 310 K
Info:       PRESSURE CONTROL IS GROUP-BASED
Info:    INITIAL STRAIN RATE IS 0 0 0
Info:       CELL FLUCTUATION IS ISOTROPIC
Info: PARTICLE MESH EWALD (PME) ACTIVE
Info: PME TOLERANCE               1e-06
Info: PME EWALD COEFFICIENT       0.257952
Info: PME INTERPOLATION ORDER     4
Info: PME GRID DIMENSIONS         44 44 48
Info: PME MAXIMUM GRID SPACING    1
Info: FULL ELECTROSTATIC EVALUATION FREQUENCY      2
Info: USING VERLET I (r-RESPA) MTS SCHEME.
Info: C1 SPLITTING OF LONG RANGE ELECTROSTATICS
Info: PLACING ATOMS IN PATCHES BY HYDROGEN GROUPS
Info: RIGID BONDS TO HYDROGEN : ALL
Info:         ERROR TOLERANCE : 1e-08
Info:          MAX ITERATIONS : 100
Info: RIGID WATER USING SETTLE ALGORITHM
Info: RANDOM NUMBER SEED     1716020088
Info: USE HYDROGEN BONDS?    NO
Info: COORDINATE PDB         ../common/ubq_wb.pdb
Info: STRUCTURE FILE         ../common/ubq_wb.psf
Info: PARAMETER file: CHARMM format!
Info: PARAMETERS             ../common/par_all27_prot_lipid.inp
Info: USING ARITHMETIC MEAN TO COMBINE L-J SIGMA PARAMETERS
Info: SUMMARY OF PARAMETERS:
Info: 180 BONDS
Info: 447 ANGLES
Info: 566 DIHEDRAL
Info: 46 IMPROPER
Info: 6 CROSSTERM
Info: 119 VDW
Info: 0 VDW_PAIRS
Info: 0 NBTHOLE_PAIRS
Info: STRUCTURE SUMMARY:
Info: 7051 ATOMS
Info: 5117 BONDS
Info: 4197 ANGLES
Info: 3293 DIHEDRALS
Info: 204 IMPROPERS
Info: 74 CROSSTERMS
Info: 0 EXCLUSIONS
Info: 6449 RIGID BONDS
Info: 14704 DEGREES OF FREEDOM
Info: 2542 HYDROGEN GROUPS
Info: 4 ATOMS IN LARGEST HYDROGEN GROUP
Info: 2542 MIGRATION GROUPS
Info: 4 ATOMS IN LARGEST MIGRATION GROUP
Info: TOTAL MASS = 43514.7 amu
Info: TOTAL CHARGE = 1.00955e-06 e
Info: MASS DENSITY = 0.831947 g/cm^3
Info: ATOM DENSITY = 0.0811803 atoms/A^3
Info: ADDED 12578 IMPLICIT EXCLUSIONS
Info: NONBONDED TABLE R-SQUARED SPACING: 0.0625
Info: NONBONDED TABLE SIZE: 769 POINTS
Info: REMOVING COM VELOCITY 0.0128943 -0.0693533 -0.0301737
TCL: Minimizing for 4000 steps
ETITLE: TS BOND ANGLE DIHED IMPRP ELECT VDW BOUNDARY MISC KINETIC TOTAL TEMP POTENTIAL TOTAL3 TEMPAVG PRESSURE GPRESSURE VOLUME PRESSAVG GPRESSAVG
ENERGY: 0 263.6137 847.5817 263.7656 10.7299 -18255.4619 2422.2308 0.0000 0.0000 0.0000 -14447.5402 0.0000 -14447.5402 -14447.5402 0.0000 15125.5953 -5454.5313 86856.0000 15125.5953 -5454.5313
ENERGY: 800 61.8541 204.9091 216.0165 6.5230 -27536.0708 2345.8483 0.0000 0.0000 0.0000 -24700.9199 0.0000 -24700.9199 -24700.9199 0.0000 13293.3830 -4028.3487 86856.0000 13293.3830 -4028.3487
ENERGY: 1600 59.9820 202.4690 212.6903 6.9387 -28437.5557 2580.4511 0.0000 0.0000 0.0000 -25375.0247 0.0000 -25375.0247 -25375.0247 0.0000 14295.9248 -3657.2933 86856.0000 14295.9248 -3657.2933
ENERGY: 2400 62.0967 200.8434 210.9206 7.0638 -28776.7698 2685.7426 0.0000 0.0000 0.0000 -25610.1026 0.0000 -25610.1026 -25610.1026 0.0000 14804.3061 -3398.2728 86856.0000 14804.3061 -3398.2728
ENERGY: 3200 58.7796 197.8828 210.2157 6.6037 -28980.1532 2753.9381 0.0000 0.0000 0.0000 -25752.7334 0.0000 -25752.7334 -25752.7334 0.0000 15140.8736 -3189.8555 86856.0000 15140.8736 -3189.8555
ENERGY: 4000 56.7586 195.3985 210.1850 6.5888 -29086.5977 2778.6539 0.0000 0.0000 0.0000 -25839.0129 0.0000 -25839.0129 -25839.0129 0.0000 15270.5368 -3129.0918 86856.0000 15270.5368 -3129.0918
TCL: Running for 1000 steps
ETITLE: TS BOND ANGLE DIHED IMPRP ELECT VDW BOUNDARY MISC KINETIC TOTAL TEMP POTENTIAL TOTAL3 TEMPAVG PRESSURE GPRESSURE VOLUME PRESSAVG GPRESSAVG
ENERGY: 4000 56.7586 195.3985 210.1850 6.5888 -29086.5977 2778.6539 0.0000 0.0000 4511.3268 -21327.6862 308.7871 -25839.0129 -21330.2019 308.7871 -1907.3370 -1872.0927 86856.0000 -1907.3370 -1872.0927
ENERGY: 4200 161.6702 515.9086 271.0610 26.6614 -26842.7851 2618.3788 0.0000 0.0000 2648.9581 -20600.1470 181.3134 -23249.1051 -20590.5064 180.2774 461.5593 490.6642 79654.4446 -56.2872 -55.7004
ENERGY: 4400 175.8918 526.3000 282.3577 32.1852 -26574.9479 2460.4686 0.0000 0.0000 2997.9621 -20099.7826 205.2017 -23097.7447 -20089.0304 204.5833 134.4658 161.4267 75611.9031 -155.5429 -156.1460
ENERGY: 4600 188.6019 551.2916 299.8279 32.9354 -26242.7039 2247.4687 0.0000 0.0000 3279.7574 -19642.8209 224.4898 -22922.5783 -19631.3381 224.5153 -222.7755 -201.3442 72688.1175 -8.4440 -10.1655
ENERGY: 4800 210.1678 591.9249 281.8342 39.9003 -26146.9696 2229.6075 0.0000 0.0000 3508.6255 -19284.9094 240.1552 -22793.5349 -19271.1858 241.3906 -201.1956 -159.7153 70872.8673 75.1552 71.9582
ENERGY: 5000 202.1210 587.9788 278.2330 41.6002 -25904.2427 2125.0224 0.0000 0.0000 3657.6930 -19011.5944 250.3584 -22669.2874 -18999.3640 251.9066 378.9343 401.3697 69860.5310 -57.5643 -60.5985
