Info: SIMULATION PARAMETERS:
Info: TIMESTEP               2
Info: NUMBER OF STEPS        10000
Info: STEPS PER CYCLE        10
Info: PERIODIC CELL BASIS 1  38.9077 0 0
Info: PERIODIC CELL BASIS 2  0 40.7605 0
Info: PERIODIC CELL BASIS 3  0 0 43.5396
Info: PERIODIC CELL CENTER   31 29 17.5
Info: WRAPPING ALL CLUSTERS AROUND PERIODIC BOUNDARIES ON OUTPUT.
Info: FIRST LDB TIMESTEP     50
Info: LAST LDB TIMESTEP     -1
Info: HOM BACKGROUND SCALING 1
Info: PME BACKGROUND SCALING 1
Info: MIN ATOMS PER PATCH    40
Info: EMPTY PATCH LOAD       40 ATOMS
Info: VELOCITY FILE          ubq_wb_eq2.restart.vel
Info: CENTER OF MASS MOVING INITIALLY? NO
Info: DIELECTRIC             1
Info: EXCLUDE                SCALED ONE-FOUR
Info: 1-4 ELECTROSTATICS SCALED BY 1
Info: MODIFIED 1-4 VDW PARAMETERS WILL BE USED
Info: DCD FILENAME           ubq_wb_eq3.dcd
Info: DCD FREQUENCY          10
Info: DCD FIRST STEP         10010
Info: DCD FILE WILL CONTAIN UNIT CELL DATA
Info: XST FILENAME           ubq_wb_eq3.xst
Info: XST FREQUENCY          250
Info: NO VELOCITY DCD OUTPUT
Info: NO FORCE DCD OUTPUT
Info: OUTPUT FILENAME        ubq_wb_eq3
Info: BINARY OUTPUT FILES WILL BE USED
Info: RESTART FILENAME       ubq_wb_eq3.restart
Info: RESTART FREQUENCY      500
Info: BINARY RESTART FILES WILL BE USED
Info: SWITCHING ACTIVE
Info: SWITCHING ON           10
Info: SWITCHING OFF          12
Info: PAIRLIST DISTANCE      14
Info: PAIRLIST SHRINK RATE   0.01
Info: PAIRLIST GROW RATE     0.01
Info: PAIRLIST TRIGGER       0.3
Info: PAIRLISTS PER CYCLE    2
Info: PAIRLISTS ENABLED
Info: MARGIN                 0.495
Info: HYDROGEN GROUP CUTOFF  2.5
Info: PATCH DIMENSION        16.995
Info: ENERGY OUTPUT STEPS    10
Info: ENERGY EVALUATION STEPS    10
Info: OUTPUT ENERGY PRECISION 4
Info: OUPUT ENERGY PRECISION 4
Info: CROSSTERM ENERGY INCLUDED IN DIHEDRAL
Info: TIMING OUTPUT STEPS    100
Info: PRESSURE OUTPUT STEPS  10
Info: LANGEVIN DYNAMICS ACTIVE
Info: LANGEVIN TEMPERATURE   310
Info: LANGEVIN USING BBK INTEGRATOR
Info: LANGEVIN DAMPING COEFFICIENT IS 1 INVERSE PS
Info: LANGEVIN DYNAMICS NOT APPLIED TO HYDROGENS
Info: LANGEVIN PISTON PRESSURE CONTROL ACTIVE
Info:        TARGET PRESSURE IS 1.01325 BAR
Info:     OSCILLATION PERIOD IS 100 FS
Info:             DECAY TIME IS 50 FS
Info:     PISTON TEMPERATURE IS 310 K
Info:       PRESSURE CONTROL IS GROUP-BASED
Info:    INITIAL STRAIN RATE IS 1.7002e-05 1.7002e-05 1.7002e-05
Info:       CELL FLUCTUATION IS ISOTROPIC
Info: PARTICLE MESH EWALD (PME) ACTIVE
Info: PME TOLERANCE               1e-06
Info: PME EWALD COEFFICIENT       0.257952
Info: PME INTERPOLATION ORDER     4
Info: PME GRID DIMENSIONS         40 44 44
Info: PME MAXIMUM GRID SPACING    1
Info: FULL ELECTROSTATIC EVALUATION FREQUENCY      2
Info: USING VERLET I (r-RESPA) MTS SCHEME.
Info: C1 SPLITTING OF LONG RANGE ELECTROSTATICS
Info: PLACING ATOMS IN PATCHES BY HYDROGEN GROUPS
Info: RIGID BONDS TO HYDROGEN : ALL
Info:         ERROR TOLERANCE : 1e-08
Info:          MAX ITERATIONS : 100
Info: RIGID WATER USING SETTLE ALGORITHM
Info: RANDOM NUMBER SEED     1716021078
Info: USE HYDROGEN BONDS?    NO
Info: COORDINATE PDB         ../common/ubq_wb.pdb
Info: STRUCTURE FILE         ../common/ubq_wb.psf
Info: PARAMETER file: CHARMM format!
Info: PARAMETERS             ../common/par_all27_prot_lipid.inp
Info: USING ARITHMETIC MEAN TO COMBINE L-J SIGMA PARAMETERS
Info: BINARY COORDINATES     ubq_wb_eq2.restart.coor
Info: FIRST TIMESTEP         10000
Info: SUMMARY OF PARAMETERS:
Info: 180 BONDS
Info: 447 ANGLES
Info: 566 DIHEDRAL
Info: 46 IMPROPER
Info: 6 CROSSTERM
Info: 119 VDW
Info: 0 VDW_PAIRS
Info: 0 NBTHOLE_PAIRS
Info: STRUCTURE SUMMARY:
Info: 7051 ATOMS
Info: 5117 BONDS
Info: 4197 ANGLES
Info: 3293 DIHEDRALS
Info: 204 IMPROPERS
Info: 74 CROSSTERMS
Info: 0 EXCLUSIONS
Info: 6449 RIGID BONDS
Info: 14704 DEGREES OF FREEDOM
Info: 2542 HYDROGEN GROUPS
Info: 4 ATOMS IN LARGEST HYDROGEN GROUP
Info: 2542 MIGRATION GROUPS
Info: 4 ATOMS IN LARGEST MIGRATION GROUP
Info: TOTAL MASS = 43514.7 amu
Info: TOTAL CHARGE = 1.00955e-06 e
Info: MASS DENSITY = 1.04649 g/cm^3
Info: ATOM DENSITY = 0.102115 atoms/A^3
Info: ADDED 12578 IMPLICIT EXCLUSIONS
Info: NONBONDED TABLE R-SQUARED SPACING: 0.0625
Info: NONBONDED TABLE SIZE: 769 POINTS
Info: REMOVING COM VELOCITY -0.0858828 0.0236316 -0.0655002
TCL: Running for 40000 steps
ETITLE: TS BOND ANGLE DIHED IMPRP ELECT VDW BOUNDARY MISC KINETIC TOTAL TEMP POTENTIAL TOTAL3 TEMPAVG PRESSURE GPRESSURE VOLUME PRESSAVG GPRESSAVG
ENERGY: 10000 226.1361 714.1594 303.3460 35.2700 -24277.5968 1640.8382 0.0000 0.0000 4408.0615 -16949.7856 301.7189 -21357.8471 -16930.8999 301.7189 -39.6144 -13.3248 69049.3885 -39.6144 -13.3248
ENERGY: 18000 217.9928 719.7092 308.9589 39.3293 -24337.4295 1627.3472 0.0000 0.0000 4479.1334 -16944.9587 306.5836 -21424.0920 -16925.4141 305.9217 -327.7241 -285.6391 68778.3339 -258.2557 -257.8744
ENERGY: 26000 251.6627 708.8663 299.3661 41.6011 -24000.2887 1373.5427 0.0000 0.0000 4473.0136 -16852.2362 306.1647 -21325.2498 -16834.0411 307.9163 -792.8002 -754.2443 68845.8607 78.9980 81.4339
ENERGY: 34000 241.3665 660.8879 294.4023 45.7618 -23796.4984 1398.7412 0.0000 0.0000 4565.7919 -16589.5469 312.5151 -21155.3387 -16565.2894 311.3795 -616.7924 -600.3746 69197.9324 32.2076 33.1992
ENERGY: 42000 213.1336 738.5137 289.7548 38.3709 -24073.6709 1467.0520 0.0000 0.0000 4566.0265 -16760.8193 312.5312 -21326.8458 -16743.0255 312.0320 -20.8953 11.8230 68979.1938 -98.0900 -98.8380
ENERGY: 50000 208.7255 723.9928 328.5945 38.9106 -23991.5793 1550.8369 0.0000 0.0000 4508.8038 -16631.7153 308.6144 -21140.5191 -16613.9918 312.6834 635.2506 654.0276 69077.7836 9.1559 7.5475
