Info: SIMULATION PARAMETERS:
Info: TIMESTEP               1
Info: NUMBER OF STEPS        25000
Info: STEPS PER CYCLE        20
Info: PERIODIC CELL BASIS 1  38.4815 0 0
Info: PERIODIC CELL BASIS 2  0 38.4815 0
Info: PERIODIC CELL BASIS 3  0 0 38.4815
Info: PERIODIC CELL CENTER   0 0 0
Info: WRAPPING ALL CLUSTERS AROUND PERIODIC BOUNDARIES ON OUTPUT.
Info: WRAPPING TO IMAGE NEAREST TO PERIODIC CELL CENTER.
Info: FIRST LDB TIMESTEP     100
Info: HOM BACKGROUND SCALING 1
Info: PME BACKGROUND SCALING 1
Info: MAX SELF PARTITIONS    50
Info: MAX PAIR PARTITIONS    20
Info: SELF PARTITION ATOMS   125
Info: PAIR PARTITION ATOMS   200
Info: PAIR2 PARTITION ATOMS  400
Info: MIN ATOMS PER PATCH    100
Info: VELOCITY FILE          ./eq03.waterbox40-0.2M.restart.vel
Info: CENTER OF MASS MOVING INITIALLY? NO
Info: DIELECTRIC             1
Info: EXCLUDE                SCALED ONE-FOUR
Info: 1-4 SCALE FACTOR       1
Info: DCD FILENAME           ./eq04.concentrateIonsBrief.4CPU.dcd
Info: DCD FREQUENCY          100
Info: DCD FIRST STEP         100
Info: DCD FILE WILL CONTAIN UNIT CELL DATA
Info: XST FILENAME           ./eq04.concentrateIonsBrief.4CPU.xst
Info: XST FREQUENCY          100
Info: NO VELOCITY DCD OUTPUT
Info: OUTPUT FILENAME        ./eq04.concentrateIonsBrief.4CPU
Info: BINARY OUTPUT FILES WILL BE USED
Info: RESTART FILENAME       ./eq04.concentrateIonsBrief.4CPU.restart
Info: RESTART FREQUENCY      100
Info: BINARY RESTART FILES WILL BE USED
Info: SWITCHING ACTIVE
Info: SWITCHING ON           10
Info: SWITCHING OFF          12
Info: PAIRLIST DISTANCE      14
Info: PAIRLIST SHRINK RATE   0.01
Info: PAIRLIST GROW RATE     0.01
Info: PAIRLIST TRIGGER       0.3
Info: PAIRLISTS PER CYCLE    2
Info: PAIRLISTS ENABLED
Info: MARGIN                 3
Info: HYDROGEN GROUP CUTOFF  2.5
Info: PATCH DIMENSION        19.5
Info: ENERGY OUTPUT STEPS    100
Info: CROSSTERM ENERGY INCLUDED IN DIHEDRAL
Info: TIMING OUTPUT STEPS    100
Info: TCL BOUNDARY FORCES ACTIVE
Info: TCL BOUNDARY FORCES SCRIPT
Info: TCL BOUNDARY FORCES ARGS
Info: LANGEVIN DYNAMICS ACTIVE
Info: LANGEVIN TEMPERATURE   295
Info: LANGEVIN DAMPING COEFFICIENT IS 1 INVERSE PS
Info: LANGEVIN DYNAMICS NOT APPLIED TO HYDROGENS
Info: PARTICLE MESH EWALD (PME) ACTIVE
Info: PME TOLERANCE               1e-06
Info: PME EWALD COEFFICIENT       0.257952
Info: PME INTERPOLATION ORDER     4
Info: PME GRID DIMENSIONS         32 32 32
Info: PME MAXIMUM GRID SPACING    1.5
Info: FULL ELECTROSTATIC EVALUATION FREQUENCY      4
Info: USING VERLET I (r-RESPA) MTS SCHEME.
Info: C1 SPLITTING OF LONG RANGE ELECTROSTATICS
Info: PLACING ATOMS IN PATCHES BY HYDROGEN GROUPS
Info: NONBONDED FORCES EVALUATED EVERY 2 STEPS
Info: RANDOM NUMBER SEED     1163183941
Info: USE HYDROGEN BONDS?    NO
Info: COORDINATE PDB         ./waterbox40-0.2M.pdb
Info: STRUCTURE FILE         ./waterbox40-0.2M.psf
Info: PARAMETER file: CHARMM format!
Info: PARAMETERS             ./par_all27_prot_na.inp
Info: USING ARITHMETIC MEAN TO COMBINE L-J SIGMA PARAMETERS
Info: BINARY COORDINATES     ./eq03.waterbox40-0.2M.restart.coor
Info: SUMMARY OF PARAMETERS:
Info: 250 BONDS
Info: 622 ANGLES
Info: 1049 DIHEDRAL
Info: 73 IMPROPER
Info: 0 CROSSTERM
Info: 130 VDW
Info: 0 VDW_PAIRS
Info: STRUCTURE SUMMARY:
Info: 5915 ATOMS
Info: 3934 BONDS
Info: 1967 ANGLES
Info: 0 DIHEDRALS
Info: 0 IMPROPERS
Info: 0 CROSSTERMS
Info: 0 EXCLUSIONS
Info: 17745 DEGREES OF FREEDOM
Info: 1981 HYDROGEN GROUPS
Info: TOTAL MASS = 35958.2 amu
Info: TOTAL CHARGE = 0 e
Info: REMOVING COM VELOCITY 0.0492395 0.0480694 0.0729626
Info: NONBONDED TABLE R-SQUARED SPACING: 0.0625
Info: NONBONDED TABLE SIZE: 769 POINTS
ETITLE: TS BOND ANGLE DIHED IMPRP ELECT VDW BOUNDARY MISC KINETIC TOTAL TEMP TOTAL2 TOTAL3 TEMPAVG PRESSURE GPRESSURE VOLUME PRESSAVG GPRESSAVG
ENERGY: 0 1822.0932 1115.9292 0.0000 0.0000 -26125.2310 2834.9157 0.0000 0.0000 5065.9007 -15286.3920 287.3234 -15203.9063 -15203.9063 287.3234 2785.1777 112.0507 56984.3996 2785.1777 112.0507
TCL: Step 100, average number of ions outside the sphere: 13.0
Info: Adjusted background load on 2 nodes.
ETITLE: TS BOND ANGLE DIHED IMPRP ELECT VDW BOUNDARY MISC KINETIC TOTAL TEMP TOTAL2 TOTAL3 TEMPAVG PRESSURE GPRESSURE VOLUME PRESSAVG GPRESSAVG
ENERGY: 100 1783.7766 1083.4055 0.0000 0.0000 -26072.0765 2804.3508 0.0000 0.0000 5114.2177 -15286.3258 290.0638 -15204.3224 -15203.8078 290.0193 2986.4281 13.7072 56984.3996 -36.9921 -33.2159
TCL: Step 200, average number of ions outside the sphere: 13.0
ETITLE: TS BOND ANGLE DIHED IMPRP ELECT VDW BOUNDARY MISC KINETIC TOTAL TEMP TOTAL2 TOTAL3 TEMPAVG PRESSURE GPRESSURE VOLUME PRESSAVG GPRESSAVG
ENERGY: 200 1815.6367 1090.6545 0.0000 0.0000 -26105.9599 2762.1766 0.0000 0.0000 5148.9311 -15288.5609 292.0327 -15205.5069 -15209.0045 291.1027 2505.4490 -265.2667 56984.3996 -214.2143 -202.2003
TCL: Step 300, average number of ions outside the sphere: 13.0
ETITLE: TS BOND ANGLE DIHED IMPRP ELECT VDW BOUNDARY MISC KINETIC TOTAL TEMP TOTAL2 TOTAL3 TEMPAVG PRESSURE GPRESSURE VOLUME PRESSAVG GPRESSAVG
ENERGY: 300 1806.1586 1121.3051 0.0000 0.0000 -26160.1226 2779.3485 0.0000 0.0000 5195.0721 -15258.2384 294.6497 -15175.8069 -15176.3192 292.2559 3001.7631 -127.7919 56984.3996 -221.6827 -226.1418
TCL: Step 400, average number of ions outside the sphere: 13.0
ETITLE: TS BOND ANGLE DIHED IMPRP ELECT VDW BOUNDARY MISC KINETIC TOTAL TEMP TOTAL2 TOTAL3 TEMPAVG PRESSURE GPRESSURE VOLUME PRESSAVG GPRESSAVG
ENERGY: 400 1800.1451 1069.5051 0.0000 0.0000 -25986.5950 2702.5505 0.0000 0.0000 5182.7980 -15231.5963 293.9535 -15149.0669 -15150.5280 293.6737 3108.4611 -346.8197 56984.3996 -117.5206 -119.4140
TCL: Step 500, average number of ions outside the sphere: 13.0
ETITLE: TS BOND ANGLE DIHED IMPRP ELECT VDW BOUNDARY MISC KINETIC TOTAL TEMP TOTAL2 TOTAL3 TEMPAVG PRESSURE GPRESSURE VOLUME PRESSAVG GPRESSAVG
ENERGY: 500 1807.3118 1079.8393 0.0000 0.0000 -26017.8537 2683.8977 0.0000 0.0000 5204.7343 -15242.0707 295.1977 -15160.2832 -15159.6509 291.6462 2734.6867 -501.0441 56984.3996 -516.1368 -517.3330
TCL: Step 600, average number of ions outside the sphere: 13.0
ETITLE: TS BOND ANGLE DIHED IMPRP ELECT VDW BOUNDARY MISC KINETIC TOTAL TEMP TOTAL2 TOTAL3 TEMPAVG PRESSURE GPRESSURE VOLUME PRESSAVG GPRESSAVG
ENERGY: 600 1813.6178 1052.2081 0.0000 0.0000 -25997.5425 2788.9592 0.0000 0.0000 5110.5092 -15232.2482 289.8535 -15149.5650 -15151.0073 292.4545 3050.2440 32.5312 56984.3996 -274.7656 -275.6437
TCL: Step 700, average number of ions outside the sphere: 13.0
ETITLE: TS BOND ANGLE DIHED IMPRP ELECT VDW BOUNDARY MISC KINETIC TOTAL TEMP TOTAL2 TOTAL3 TEMPAVG PRESSURE GPRESSURE VOLUME PRESSAVG GPRESSAVG
ENERGY: 700 1839.3588 1114.0786 0.0000 0.0000 -25980.1508 2644.7024 0.0000 0.0000 5182.9498 -15199.0611 293.9621 -15117.5956 -15115.0305 291.3767 1965.0922 -736.5302 56984.3996 -365.5122 -361.4130
TCL: Step 800, average number of ions outside the sphere: 13.0
ETITLE: TS BOND ANGLE DIHED IMPRP ELECT VDW BOUNDARY MISC KINETIC TOTAL TEMP TOTAL2 TOTAL3 TEMPAVG PRESSURE GPRESSURE VOLUME PRESSAVG GPRESSAVG
ENERGY: 800 1859.4046 1126.0530 0.0000 0.0000 -26032.9067 2631.8593 0.0000 0.0000 5244.6356 -15170.9541 297.4608 -15089.0932 -15088.1472 294.0035 1433.0927 -846.5102 56984.3996 -700.9406 -703.8444
TCL: Step 900, average number of ions outside the sphere: 13.0
ETITLE: TS BOND ANGLE DIHED IMPRP ELECT VDW BOUNDARY MISC KINETIC TOTAL TEMP TOTAL2 TOTAL3 TEMPAVG PRESSURE GPRESSURE VOLUME PRESSAVG GPRESSAVG
ENERGY: 900 1819.5011 1066.6925 0.0000 0.0000 -26213.7541 2963.3088 0.0000 0.0000 5223.4161 -15140.8356 296.2573 -15059.1840 -15055.7838 294.5103 2913.3943 832.0845 56984.3996 68.4183 72.2777
TCL: Step 1000, average number of ions outside the sphere: 13.0
ETITLE: TS BOND ANGLE DIHED IMPRP ELECT VDW BOUNDARY MISC KINETIC TOTAL TEMP TOTAL2 TOTAL3 TEMPAVG PRESSURE GPRESSURE VOLUME PRESSAVG GPRESSAVG
ENERGY: 1000 1856.7062 1118.3326 0.0000 0.0000 -26077.6336 2825.7829 0.0000 0.0000 5148.3036 -15128.5083 291.9971 -15046.0610 -15045.4673 294.3102 2521.2247 214.0911 56984.3996 424.4831 422.3496
TCL: Step 1100, average number of ions outside the sphere: 13.0
ETITLE: TS BOND ANGLE DIHED IMPRP ELECT VDW BOUNDARY MISC KINETIC TOTAL TEMP TOTAL2 TOTAL3 TEMPAVG PRESSURE GPRESSURE VOLUME PRESSAVG GPRESSAVG
ENERGY: 1100 1840.9346 1089.5141 0.0000 0.0000 -25954.6302 2659.4539 0.0000 0.0000 5257.5187 -15107.2089 298.1915 -15026.2071 -15021.3600 295.5131 1627.5699 -522.2177 56984.3996 -206.6086 -213.2297
TCL: Step 1200, average number of ions outside the sphere: 13.0
ETITLE: TS BOND ANGLE DIHED IMPRP ELECT VDW BOUNDARY MISC KINETIC TOTAL TEMP TOTAL2 TOTAL3 TEMPAVG PRESSURE GPRESSURE VOLUME PRESSAVG GPRESSAVG
ENERGY: 1200 1855.3197 1124.0409 0.0000 0.0000 -25929.2235 2659.0825 0.0000 0.0000 5219.8068 -15070.9736 296.0526 -14988.9511 -14988.8433 297.4542 1707.5222 -518.4313 56984.3996 -255.9847 -252.4997
TCL: Step 1300, average number of ions outside the sphere: 13.0
ETITLE: TS BOND ANGLE DIHED IMPRP ELECT VDW BOUNDARY MISC KINETIC TOTAL TEMP TOTAL2 TOTAL3 TEMPAVG PRESSURE GPRESSURE VOLUME PRESSAVG GPRESSAVG
ENERGY: 1300 1817.1458 1088.8503 0.0000 0.0000 -25940.1116 2713.7895 0.0000 0.0000 5247.3972 -15072.9288 297.6174 -14992.4802 -14986.3166 296.3134 2100.7042 -254.6716 56984.3996 -308.4597 -308.8352
TCL: Step 1400, average number of ions outside the sphere: 13.0
ETITLE: TS BOND ANGLE DIHED IMPRP ELECT VDW BOUNDARY MISC KINETIC TOTAL TEMP TOTAL2 TOTAL3 TEMPAVG PRESSURE GPRESSURE VOLUME PRESSAVG GPRESSAVG
ENERGY: 1400 1871.8758 1135.8334 0.0000 0.0000 -26092.8240 2847.0609 0.0000 0.0000 5165.8966 -15072.1572 292.9949 -14989.2868 -14991.4259 296.6386 2547.1774 414.7958 56984.3996 239.4443 240.9683
TCL: Step 1500, average number of ions outside the sphere: 12.56
ETITLE: TS BOND ANGLE DIHED IMPRP ELECT VDW BOUNDARY MISC KINETIC TOTAL TEMP TOTAL2 TOTAL3 TEMPAVG PRESSURE GPRESSURE VOLUME PRESSAVG GPRESSAVG
ENERGY: 1500 1821.2628 1140.8568 0.0000 0.0000 -26146.9538 2868.6191 0.0000 0.0000 5204.9385 -15111.2766 295.2093 -15030.8218 -15022.2476 296.8030 2773.3476 359.5890 56984.3996 474.4695 475.3187
TCL: Step 1600, average number of ions outside the sphere: 12.0
ETITLE: TS BOND ANGLE DIHED IMPRP ELECT VDW BOUNDARY MISC KINETIC TOTAL TEMP TOTAL2 TOTAL3 TEMPAVG PRESSURE GPRESSURE VOLUME PRESSAVG GPRESSAVG
ENERGY: 1600 1809.2448 1088.9094 0.0000 0.0000 -25855.4519 2668.4870 0.0000 0.0000 5198.7336 -15090.0772 294.8573 -15009.0342 -15004.5147 292.6127 2134.8631 -332.6561 56984.3996 -22.1266 -26.4009
TCL: Step 1700, average number of ions outside the sphere: 12.0
ETITLE: TS BOND ANGLE DIHED IMPRP ELECT VDW BOUNDARY MISC KINETIC TOTAL TEMP TOTAL2 TOTAL3 TEMPAVG PRESSURE GPRESSURE VOLUME PRESSAVG GPRESSAVG
ENERGY: 1700 1844.1100 1089.9331 0.0000 0.0000 -26032.7556 2812.8324 0.0000 0.0000 5224.0094 -15061.8707 296.2909 -14977.8202 -14984.3643 294.7494 3086.4246 300.7221 56984.3996 114.1668 117.7377
TCL: Step 1800, average number of ions outside the sphere: 12.0
ETITLE: TS BOND ANGLE DIHED IMPRP ELECT VDW BOUNDARY MISC KINETIC TOTAL TEMP TOTAL2 TOTAL3 TEMPAVG PRESSURE GPRESSURE VOLUME PRESSAVG GPRESSAVG
ENERGY: 1800 1772.5215 1112.5792 0.0000 0.0000 -25915.2321 2730.0478 0.0000 0.0000 5255.9200 -15044.1636 298.1008 -14963.0314 -14958.6365 295.7182 2815.9886 -6.7004 56984.3996 154.8595 155.3917
TCL: Step 1900, average number of ions outside the sphere: 13.0
ETITLE: TS BOND ANGLE DIHED IMPRP ELECT VDW BOUNDARY MISC KINETIC TOTAL TEMP TOTAL2 TOTAL3 TEMPAVG PRESSURE GPRESSURE VOLUME PRESSAVG GPRESSAVG
ENERGY: 1900 1864.1940 1072.3708 0.0000 0.0000 -25943.2273 2769.1644 0.0000 0.0000 5220.4365 -15017.0616 296.0883 -14933.3171 -14938.8898 297.4613 2731.0419 146.5704 56984.3996 135.1161 131.3397
TCL: Step 2000, average number of ions outside the sphere: 12.45
ETITLE: TS BOND ANGLE DIHED IMPRP ELECT VDW BOUNDARY MISC KINETIC TOTAL TEMP TOTAL2 TOTAL3 TEMPAVG PRESSURE GPRESSURE VOLUME PRESSAVG GPRESSAVG
ENERGY: 2000 1864.0635 1113.1087 0.0000 0.0000 -26055.0475 2824.8914 0.0000 0.0000 5217.0492 -15035.9347 295.8961 -14953.3457 -14952.7914 297.2379 2508.4868 243.5610 56984.3996 65.9675 69.6487
TCL: Step 2100, average number of ions outside the sphere: 12.0
ETITLE: TS BOND ANGLE DIHED IMPRP ELECT VDW BOUNDARY MISC KINETIC TOTAL TEMP TOTAL2 TOTAL3 TEMPAVG PRESSURE GPRESSURE VOLUME PRESSAVG GPRESSAVG
ENERGY: 2100 1865.8011 1107.1631 0.0000 0.0000 -26187.8315 2920.0472 0.0000 0.0000 5264.9794 -15029.8406 298.6146 -14947.6221 -14944.9476 296.9296 3178.2900 688.1463 56984.3996 586.1001 589.3116
TCL: Step 2200, average number of ions outside the sphere: 12.0
ETITLE: TS BOND ANGLE DIHED IMPRP ELECT VDW BOUNDARY MISC KINETIC TOTAL TEMP TOTAL2 TOTAL3 TEMPAVG PRESSURE GPRESSURE VOLUME PRESSAVG GPRESSAVG
ENERGY: 2200 1830.1010 1065.3228 0.0000 0.0000 -25872.4984 2720.7325 0.0000 0.0000 5198.9482 -15057.3940 294.8695 -14974.6442 -14974.3187 297.3916 2520.2010 -53.5775 56984.3996 135.1057 130.3717
TCL: Step 2300, average number of ions outside the sphere: 12.0
ETITLE: TS BOND ANGLE DIHED IMPRP ELECT VDW BOUNDARY MISC KINETIC TOTAL TEMP TOTAL2 TOTAL3 TEMPAVG PRESSURE GPRESSURE VOLUME PRESSAVG GPRESSAVG
ENERGY: 2300 1820.3128 1100.1435 0.0000 0.0000 -25956.9231 2720.5184 0.0000 0.0000 5240.7524 -15075.1960 297.2405 -14994.2147 -14987.1724 295.1443 2348.1311 -211.1402 56984.3996 -125.0200 -123.7743
TCL: Step 2400, average number of ions outside the sphere: 11.1
ETITLE: TS BOND ANGLE DIHED IMPRP ELECT VDW BOUNDARY MISC KINETIC TOTAL TEMP TOTAL2 TOTAL3 TEMPAVG PRESSURE GPRESSURE VOLUME PRESSAVG GPRESSAVG
ENERGY: 2400 1834.9289 1130.9737 0.0000 0.0000 -26050.4413 2785.3116 0.0000 0.0000 5257.4718 -15041.7554 298.1888 -14960.5284 -14953.8209 294.9437 2619.8243 37.1377 56984.3996 332.9608 333.5765
TCL: Step 2500, average number of ions outside the sphere: 11.0
ETITLE: TS BOND ANGLE DIHED IMPRP ELECT VDW BOUNDARY MISC KINETIC TOTAL TEMP TOTAL2 TOTAL3 TEMPAVG PRESSURE GPRESSURE VOLUME PRESSAVG GPRESSAVG
ENERGY: 2500 1861.7649 1073.9987 0.0000 0.0000 -26092.6220 2872.4351 0.0000 0.0000 5223.4558 -15060.9675 296.2595 -14978.2055 -14977.6050 296.2143 3194.6063 518.3752 56984.3996 414.0518 407.6569
TCL: Step 2600, average number of ions outside the sphere: 11.0
ETITLE: TS BOND ANGLE DIHED IMPRP ELECT VDW BOUNDARY MISC KINETIC TOTAL TEMP TOTAL2 TOTAL3 TEMPAVG PRESSURE GPRESSURE VOLUME PRESSAVG GPRESSAVG
ENERGY: 2600 1841.2012 1095.9083 0.0000 0.0000 -25989.3020 2852.2824 0.0000 0.0000 5176.0188 -15023.8914 293.5690 -14941.5027 -14938.7655 296.5072 2996.9657 503.3435 56984.3996 359.7627 360.8733
TCL: Step 2700, average number of ions outside the sphere: 11.0
ETITLE: TS BOND ANGLE DIHED IMPRP ELECT VDW BOUNDARY MISC KINETIC TOTAL TEMP TOTAL2 TOTAL3 TEMPAVG PRESSURE GPRESSURE VOLUME PRESSAVG GPRESSAVG
ENERGY: 2700 1864.5859 1143.2296 0.0000 0.0000 -26096.1718 2793.8232 0.0000 0.0000 5288.2547 -15006.2782 299.9347 -14923.9157 -14920.3007 298.8859 2373.0319 17.9872 56984.3996 251.4134 251.2052
TCL: Step 2800, average number of ions outside the sphere: 11.63
ETITLE: TS BOND ANGLE DIHED IMPRP ELECT VDW BOUNDARY MISC KINETIC TOTAL TEMP TOTAL2 TOTAL3 TEMPAVG PRESSURE GPRESSURE VOLUME PRESSAVG GPRESSAVG
ENERGY: 2800 1879.1818 1067.5006 0.0000 0.0000 -25855.3801 2659.1549 0.0000 0.0000 5229.4213 -15020.1216 296.5979 -14938.0967 -14933.5870 296.0740 1699.6422 -469.7229 56984.3996 -82.5296 -81.8729
TCL: Step 2900, average number of ions outside the sphere: 10.98
ETITLE: TS BOND ANGLE DIHED IMPRP ELECT VDW BOUNDARY MISC KINETIC TOTAL TEMP TOTAL2 TOTAL3 TEMPAVG PRESSURE GPRESSURE VOLUME PRESSAVG GPRESSAVG
ENERGY: 2900 1873.2785 1116.8683 0.0000 0.0000 -25960.4435 2739.5184 0.0000 0.0000 5195.1457 -15035.6326 294.6538 -14951.8722 -14954.4093 296.4544 2331.2389 -132.6412 56984.3996 -278.8727 -277.3421
TCL: Step 3000, average number of ions outside the sphere: 10.0
ETITLE: TS BOND ANGLE DIHED IMPRP ELECT VDW BOUNDARY MISC KINETIC TOTAL TEMP TOTAL2 TOTAL3 TEMPAVG PRESSURE GPRESSURE VOLUME PRESSAVG GPRESSAVG
ENERGY: 3000 1880.6305 1085.1021 0.0000 0.0000 -26040.8788 2801.3906 0.0000 0.0000 5248.0675 -15025.6881 297.6554 -14942.2449 -14942.0511 296.8417 2976.6051 218.3513 56984.3996 200.2496 196.2149
TCL: Step 3100, average number of ions outside the sphere: 11.0
ETITLE: TS BOND ANGLE DIHED IMPRP ELECT VDW BOUNDARY MISC KINETIC TOTAL TEMP TOTAL2 TOTAL3 TEMPAVG PRESSURE GPRESSURE VOLUME PRESSAVG GPRESSAVG
ENERGY: 3100 1869.6891 1103.0193 0.0000 0.0000 -26058.4380 2848.5843 0.0000 0.0000 5233.9652 -15003.1800 296.8556 -14920.9263 -14917.6819 295.7865 2967.0549 400.7636 56984.3996 93.9436 94.1600
TCL: Step 3200, average number of ions outside the sphere: 12.0
ETITLE: TS BOND ANGLE DIHED IMPRP ELECT VDW BOUNDARY MISC KINETIC TOTAL TEMP TOTAL2 TOTAL3 TEMPAVG PRESSURE GPRESSURE VOLUME PRESSAVG GPRESSAVG
ENERGY: 3200 1852.0459 1073.0574 0.0000 0.0000 -25896.6901 2760.8084 0.0000 0.0000 5234.6876 -14976.0908 296.8965 -14892.3386 -14893.1673 299.0562 2715.1355 145.8933 56984.3996 406.4830 402.8899
TCL: Step 3300, average number of ions outside the sphere: 11.22
ETITLE: TS BOND ANGLE DIHED IMPRP ELECT VDW BOUNDARY MISC KINETIC TOTAL TEMP TOTAL2 TOTAL3 TEMPAVG PRESSURE GPRESSURE VOLUME PRESSAVG GPRESSAVG
ENERGY: 3300 1824.8607 1067.3920 0.0000 0.0000 -25794.3316 2635.7425 0.0000 0.0000 5297.6855 -14968.6510 300.4696 -14886.5192 -14882.2609 296.9587 2506.1098 -433.8968 56984.3996 -209.3868 -206.6656
TCL: Step 3400, average number of ions outside the sphere: 9.37
ETITLE: TS BOND ANGLE DIHED IMPRP ELECT VDW BOUNDARY MISC KINETIC TOTAL TEMP TOTAL2 TOTAL3 TEMPAVG PRESSURE GPRESSURE VOLUME PRESSAVG GPRESSAVG
ENERGY: 3400 1809.5357 1083.0689 0.0000 0.0000 -25902.5266 2783.2845 0.0000 0.0000 5260.6880 -14965.9494 298.3712 -14883.0765 -14881.4603 296.3319 3441.0984 234.3577 56984.3996 -113.7549 -113.2150
TCL: Step 3500, average number of ions outside the sphere: 10.0
ETITLE: TS BOND ANGLE DIHED IMPRP ELECT VDW BOUNDARY MISC KINETIC TOTAL TEMP TOTAL2 TOTAL3 TEMPAVG PRESSURE GPRESSURE VOLUME PRESSAVG GPRESSAVG
ENERGY: 3500 1834.3197 1066.6700 0.0000 0.0000 -25759.2756 2713.7159 0.0000 0.0000 5200.1547 -14944.4153 294.9379 -14859.8682 -14866.2865 295.8377 3215.9680 15.6216 56984.3996 18.3094 13.5648
TCL: Step 3600, average number of ions outside the sphere: 10.0
ETITLE: TS BOND ANGLE DIHED IMPRP ELECT VDW BOUNDARY MISC KINETIC TOTAL TEMP TOTAL2 TOTAL3 TEMPAVG PRESSURE GPRESSURE VOLUME PRESSAVG GPRESSAVG
ENERGY: 3600 1788.1544 1130.7342 0.0000 0.0000 -25871.4502 2754.2904 0.0000 0.0000 5288.6696 -14909.6016 299.9583 -14826.1728 -14828.4979 297.8313 3332.4542 103.4098 56984.3996 89.1966 93.4553
TCL: Step 3700, average number of ions outside the sphere: 10.13
ETITLE: TS BOND ANGLE DIHED IMPRP ELECT VDW BOUNDARY MISC KINETIC TOTAL TEMP TOTAL2 TOTAL3 TEMPAVG PRESSURE GPRESSURE VOLUME PRESSAVG GPRESSAVG
ENERGY: 3700 1798.6711 1105.2255 0.0000 0.0000 -25893.0837 2802.3128 0.0000 0.0000 5242.8523 -14944.0221 297.3596 -14862.4056 -14857.7475 297.3769 3741.2453 295.0489 56984.3996 155.6768 149.7420
TCL: Step 3800, average number of ions outside the sphere: 11.0
ETITLE: TS BOND ANGLE DIHED IMPRP ELECT VDW BOUNDARY MISC KINETIC TOTAL TEMP TOTAL2 TOTAL3 TEMPAVG PRESSURE GPRESSURE VOLUME PRESSAVG GPRESSAVG
ENERGY: 3800 1839.5206 1070.7532 0.0000 0.0000 -25824.7491 2708.6218 0.0000 0.0000 5261.2029 -14944.6505 298.4004 -14860.2571 -14866.2620 297.4282 3313.0004 -109.1165 56984.3996 154.2194 148.5919
TCL: Step 3900, average number of ions outside the sphere: 10.09
ETITLE: TS BOND ANGLE DIHED IMPRP ELECT VDW BOUNDARY MISC KINETIC TOTAL TEMP TOTAL2 TOTAL3 TEMPAVG PRESSURE GPRESSURE VOLUME PRESSAVG GPRESSAVG
ENERGY: 3900 1811.2329 1122.4437 0.0000 0.0000 -25983.9085 2803.7685 0.0000 0.0000 5283.3044 -14963.1591 299.6540 -14880.9680 -14878.5983 298.6702 3045.5768 230.7287 56984.3996 67.1966 73.2841
TCL: Step 4000, average number of ions outside the sphere: 10.0
