Info: SIMULATION PARAMETERS:
Info: TIMESTEP               1
Info: NUMBER OF STEPS        25000
Info: STEPS PER CYCLE        20
Info: PERIODIC CELL BASIS 1  38.4815 0 0
Info: PERIODIC CELL BASIS 2  0 38.4815 0
Info: PERIODIC CELL BASIS 3  0 0 38.4815
Info: PERIODIC CELL CENTER   0 0 0
Info: WRAPPING ALL CLUSTERS AROUND PERIODIC BOUNDARIES ON OUTPUT.
Info: WRAPPING TO IMAGE NEAREST TO PERIODIC CELL CENTER.
Info: FIRST LDB TIMESTEP     100
Info: HOM BACKGROUND SCALING 1
Info: PME BACKGROUND SCALING 1
Info: MAX SELF PARTITIONS    50
Info: MAX PAIR PARTITIONS    20
Info: SELF PARTITION ATOMS   125
Info: PAIR PARTITION ATOMS   200
Info: PAIR2 PARTITION ATOMS  400
Info: MIN ATOMS PER PATCH    100
Info: VELOCITY FILE          ./eq03.waterbox40-0.2M.restart.vel
Info: CENTER OF MASS MOVING INITIALLY? NO
Info: DIELECTRIC             1
Info: EXCLUDE                SCALED ONE-FOUR
Info: 1-4 SCALE FACTOR       1
Info: DCD FILENAME           ./eq04.concentrateIons.4CPU.dcd
Info: DCD FREQUENCY          100
Info: DCD FIRST STEP         100
Info: DCD FILE WILL CONTAIN UNIT CELL DATA
Info: XST FILENAME           ./eq04.concentrateIons.4CPU.xst
Info: XST FREQUENCY          100
Info: NO VELOCITY DCD OUTPUT
Info: OUTPUT FILENAME        ./eq04.concentrateIons.4CPU
Info: BINARY OUTPUT FILES WILL BE USED
Info: RESTART FILENAME       ./eq04.concentrateIons.4CPU.restart
Info: RESTART FREQUENCY      100
Info: BINARY RESTART FILES WILL BE USED
Info: SWITCHING ACTIVE
Info: SWITCHING ON           10
Info: SWITCHING OFF          12
Info: PAIRLIST DISTANCE      14
Info: PAIRLIST SHRINK RATE   0.01
Info: PAIRLIST GROW RATE     0.01
Info: PAIRLIST TRIGGER       0.3
Info: PAIRLISTS PER CYCLE    2
Info: PAIRLISTS ENABLED
Info: MARGIN                 3
Info: HYDROGEN GROUP CUTOFF  2.5
Info: PATCH DIMENSION        19.5
Info: ENERGY OUTPUT STEPS    100
Info: CROSSTERM ENERGY INCLUDED IN DIHEDRAL
Info: TIMING OUTPUT STEPS    100
Info: TCL BOUNDARY FORCES ACTIVE
Info: TCL BOUNDARY FORCES SCRIPT
Info: TCL BOUNDARY FORCES ARGS
Info: LANGEVIN DYNAMICS ACTIVE
Info: LANGEVIN TEMPERATURE   295
Info: LANGEVIN DAMPING COEFFICIENT IS 1 INVERSE PS
Info: LANGEVIN DYNAMICS NOT APPLIED TO HYDROGENS
Info: PARTICLE MESH EWALD (PME) ACTIVE
Info: PME TOLERANCE               1e-06
Info: PME EWALD COEFFICIENT       0.257952
Info: PME INTERPOLATION ORDER     4
Info: PME GRID DIMENSIONS         32 32 32
Info: PME MAXIMUM GRID SPACING    1.5
Info: FULL ELECTROSTATIC EVALUATION FREQUENCY      4
Info: USING VERLET I (r-RESPA) MTS SCHEME.
Info: C1 SPLITTING OF LONG RANGE ELECTROSTATICS
Info: PLACING ATOMS IN PATCHES BY HYDROGEN GROUPS
Info: NONBONDED FORCES EVALUATED EVERY 2 STEPS
Info: RANDOM NUMBER SEED     1163183482
Info: USE HYDROGEN BONDS?    NO
Info: COORDINATE PDB         ./waterbox40-0.2M.pdb
Info: STRUCTURE FILE         ./waterbox40-0.2M.psf
Info: PARAMETER file: CHARMM format!
Info: PARAMETERS             ./par_all27_prot_na.inp
Info: USING ARITHMETIC MEAN TO COMBINE L-J SIGMA PARAMETERS
Info: BINARY COORDINATES     ./eq03.waterbox40-0.2M.restart.coor
Info: SUMMARY OF PARAMETERS:
Info: 250 BONDS
Info: 622 ANGLES
Info: 1049 DIHEDRAL
Info: 73 IMPROPER
Info: 0 CROSSTERM
Info: 130 VDW
Info: 0 VDW_PAIRS
Info: STRUCTURE SUMMARY:
Info: 5915 ATOMS
Info: 3934 BONDS
Info: 1967 ANGLES
Info: 0 DIHEDRALS
Info: 0 IMPROPERS
Info: 0 CROSSTERMS
Info: 0 EXCLUSIONS
Info: 17745 DEGREES OF FREEDOM
Info: 1981 HYDROGEN GROUPS
Info: TOTAL MASS = 35958.2 amu
Info: TOTAL CHARGE = 0 e
Info: REMOVING COM VELOCITY 0.0492395 0.0480694 0.0729626
Info: NONBONDED TABLE R-SQUARED SPACING: 0.0625
Info: NONBONDED TABLE SIZE: 769 POINTS
Info: Adjusted background load on 3 nodes.
ETITLE: TS BOND ANGLE DIHED IMPRP ELECT VDW BOUNDARY MISC KINETIC TOTAL TEMP TOTAL2 TOTAL3 TEMPAVG PRESSURE GPRESSURE VOLUME PRESSAVG GPRESSAVG
ENERGY: 0 1822.0932 1115.9292 0.0000 0.0000 -26125.2310 2834.9157 0.0000 0.0000 5065.9007 -15286.3920 287.3234 -15203.9062 -15203.9062 287.3234 2785.1780 112.0509 56984.3996 2785.1780 112.0509
ENERGY: 5000 1795.9715 1079.6683 0.0000 0.0000 -25789.8109 2761.1160 0.0000 0.0000 5228.8729 -14924.1823 296.5668 -14842.1958 -14843.1025 297.6754 3210.1268 355.1686 56984.3996 461.3904 463.8579
ENERGY: 10000 1811.0982 1122.5446 0.0000 0.0000 -25773.7560 2679.7964 0.0000 0.0000 5272.1708 -14888.1461 299.0225 -14805.0884 -14807.4196 298.8013 3109.8574 -167.3141 56984.3996 56.1227 58.7884
ENERGY: 15000 1801.0150 1092.9865 0.0000 0.0000 -25987.1571 2755.5944 0.0000 0.0000 5388.1665 -14949.3947 305.6014 -14868.9949 -14862.1754 299.6282 2833.7071 -97.7537 56984.3996 -173.9642 -169.7718
ENERGY: 20000 1855.1949 1113.8720 0.0000 0.0000 -25958.3272 2724.5460 0.0000 0.0000 5156.5440 -15108.1703 292.4645 -15026.0289 -15026.8749 294.9317 2322.3714 -198.7544 56984.3996 22.6889 18.5886
ENERGY: 25000 1753.9691 1110.9946 0.0000 0.0000 -26022.5209 2815.2216 0.0000 0.0000 5073.0227 -15269.3130 287.7274 -15186.2398 -15190.7808 291.7175 4033.6912 177.5257 56984.3996 2.2459 4.0787
