Info: SIMULATION PARAMETERS:
Info: TIMESTEP               1
Info: NUMBER OF STEPS        25000
Info: STEPS PER CYCLE        20
Info: PERIODIC CELL BASIS 1  38.4815 0 0
Info: PERIODIC CELL BASIS 2  0 38.4815 0
Info: PERIODIC CELL BASIS 3  0 0 38.4815
Info: PERIODIC CELL CENTER   0 0 0
Info: WRAPPING ALL CLUSTERS AROUND PERIODIC BOUNDARIES ON OUTPUT.
Info: WRAPPING TO IMAGE NEAREST TO PERIODIC CELL CENTER.
Info: FIRST LDB TIMESTEP     100
Info: HOM BACKGROUND SCALING 1
Info: PME BACKGROUND SCALING 1
Info: MAX SELF PARTITIONS    50
Info: MAX PAIR PARTITIONS    20
Info: SELF PARTITION ATOMS   125
Info: PAIR PARTITION ATOMS   200
Info: PAIR2 PARTITION ATOMS  400
Info: MIN ATOMS PER PATCH    100
Info: VELOCITY FILE          ./eq03.waterbox40-0.2M.restart.vel
Info: CENTER OF MASS MOVING INITIALLY? NO
Info: DIELECTRIC             1
Info: EXCLUDE                SCALED ONE-FOUR
Info: 1-4 SCALE FACTOR       1
Info: DCD FILENAME           ./eq04.concentrateIonsBrief.dcd
Info: DCD FREQUENCY          100
Info: DCD FIRST STEP         100
Info: DCD FILE WILL CONTAIN UNIT CELL DATA
Info: XST FILENAME           ./eq04.concentrateIonsBrief.xst
Info: XST FREQUENCY          100
Info: NO VELOCITY DCD OUTPUT
Info: OUTPUT FILENAME        ./eq04.concentrateIonsBrief
Info: BINARY OUTPUT FILES WILL BE USED
Info: RESTART FILENAME       ./eq04.concentrateIonsBrief.restart
Info: RESTART FREQUENCY      100
Info: BINARY RESTART FILES WILL BE USED
Info: SWITCHING ACTIVE
Info: SWITCHING ON           10
Info: SWITCHING OFF          12
Info: PAIRLIST DISTANCE      14
Info: PAIRLIST SHRINK RATE   0.01
Info: PAIRLIST GROW RATE     0.01
Info: PAIRLIST TRIGGER       0.3
Info: PAIRLISTS PER CYCLE    2
Info: PAIRLISTS ENABLED
Info: MARGIN                 3
Info: HYDROGEN GROUP CUTOFF  2.5
Info: PATCH DIMENSION        19.5
Info: ENERGY OUTPUT STEPS    100
Info: CROSSTERM ENERGY INCLUDED IN DIHEDRAL
Info: TIMING OUTPUT STEPS    100
Info: TCL BOUNDARY FORCES ACTIVE
Info: TCL BOUNDARY FORCES SCRIPT
Info: TCL BOUNDARY FORCES ARGS
Info: LANGEVIN DYNAMICS ACTIVE
Info: LANGEVIN TEMPERATURE   295
Info: LANGEVIN DAMPING COEFFICIENT IS 1 INVERSE PS
Info: LANGEVIN DYNAMICS NOT APPLIED TO HYDROGENS
Info: PARTICLE MESH EWALD (PME) ACTIVE
Info: PME TOLERANCE               1e-06
Info: PME EWALD COEFFICIENT       0.257952
Info: PME INTERPOLATION ORDER     4
Info: PME GRID DIMENSIONS         32 32 32
Info: PME MAXIMUM GRID SPACING    1.5
Info: FULL ELECTROSTATIC EVALUATION FREQUENCY      4
Info: USING VERLET I (r-RESPA) MTS SCHEME.
Info: C1 SPLITTING OF LONG RANGE ELECTROSTATICS
Info: PLACING ATOMS IN PATCHES BY HYDROGEN GROUPS
Info: NONBONDED FORCES EVALUATED EVERY 2 STEPS
Info: RANDOM NUMBER SEED     1163183542
Info: USE HYDROGEN BONDS?    NO
Info: COORDINATE PDB         ./waterbox40-0.2M.pdb
Info: STRUCTURE FILE         ./waterbox40-0.2M.psf
Info: PARAMETER file: CHARMM format!
Info: PARAMETERS             ./par_all27_prot_na.inp
Info: USING ARITHMETIC MEAN TO COMBINE L-J SIGMA PARAMETERS
Info: BINARY COORDINATES     ./eq03.waterbox40-0.2M.restart.coor
Info: SUMMARY OF PARAMETERS:
Info: 250 BONDS
Info: 622 ANGLES
Info: 1049 DIHEDRAL
Info: 73 IMPROPER
Info: 0 CROSSTERM
Info: 130 VDW
Info: 0 VDW_PAIRS
Info: STRUCTURE SUMMARY:
Info: 5915 ATOMS
Info: 3934 BONDS
Info: 1967 ANGLES
Info: 0 DIHEDRALS
Info: 0 IMPROPERS
Info: 0 CROSSTERMS
Info: 0 EXCLUSIONS
Info: 17745 DEGREES OF FREEDOM
Info: 1981 HYDROGEN GROUPS
Info: TOTAL MASS = 35958.2 amu
Info: TOTAL CHARGE = 0 e
Info: REMOVING COM VELOCITY 0.0492395 0.0480694 0.0729626
Info: NONBONDED TABLE R-SQUARED SPACING: 0.0625
Info: NONBONDED TABLE SIZE: 769 POINTS
ETITLE: TS BOND ANGLE DIHED IMPRP ELECT VDW BOUNDARY MISC KINETIC TOTAL TEMP TOTAL2 TOTAL3 TEMPAVG PRESSURE GPRESSURE VOLUME PRESSAVG GPRESSAVG
ENERGY: 0 1822.0932 1115.9292 0.0000 0.0000 -26125.2310 2834.9219 0.0000 0.0000 5065.9007 -15286.3859 287.3234 -15203.9001 -15203.9001 287.3234 2785.2162 112.0899 56984.3996 2785.2162 112.0899
TCL: Step 100, average number of ions outside the sphere: 13.0
ETITLE: TS BOND ANGLE DIHED IMPRP ELECT VDW BOUNDARY MISC KINETIC TOTAL TEMP TOTAL2 TOTAL3 TEMPAVG PRESSURE GPRESSURE VOLUME PRESSAVG GPRESSAVG
ENERGY: 100 1779.0933 1087.9406 0.0000 0.0000 -26096.2461 2834.2210 0.0000 0.0000 5102.0524 -15292.9388 289.3739 -15210.9993 -15210.2674 290.1918 3137.2078 136.2263 56984.3996 -42.8951 -38.6879
TCL: Step 200, average number of ions outside the sphere: 13.0
ETITLE: TS BOND ANGLE DIHED IMPRP ELECT VDW BOUNDARY MISC KINETIC TOTAL TEMP TOTAL2 TOTAL3 TEMPAVG PRESSURE GPRESSURE VOLUME PRESSAVG GPRESSAVG
ENERGY: 200 1795.3222 1072.8151 0.0000 0.0000 -26023.7831 2783.2004 0.0000 0.0000 5117.5644 -15254.8810 290.2537 -15171.4963 -15176.5898 291.4066 2762.3115 -55.8332 56984.3996 -152.2743 -140.2692
TCL: Step 300, average number of ions outside the sphere: 13.0
ETITLE: TS BOND ANGLE DIHED IMPRP ELECT VDW BOUNDARY MISC KINETIC TOTAL TEMP TOTAL2 TOTAL3 TEMPAVG PRESSURE GPRESSURE VOLUME PRESSAVG GPRESSAVG
ENERGY: 300 1800.4707 1095.3843 0.0000 0.0000 -26049.9373 2793.9577 0.0000 0.0000 5099.1226 -15261.0020 289.2077 -15177.9666 -15180.8674 290.7720 3215.1633 -11.9073 56984.3996 -257.2780 -262.4634
TCL: Step 400, average number of ions outside the sphere: 13.0
ETITLE: TS BOND ANGLE DIHED IMPRP ELECT VDW BOUNDARY MISC KINETIC TOTAL TEMP TOTAL2 TOTAL3 TEMPAVG PRESSURE GPRESSURE VOLUME PRESSAVG GPRESSAVG
ENERGY: 400 1777.1423 1102.8110 0.0000 0.0000 -25956.8887 2712.0081 0.0000 0.0000 5137.1490 -15227.7783 291.3644 -15145.0021 -15146.8454 290.8107 3295.0446 -305.3420 56984.3996 -22.4895 -21.9858
TCL: Step 500, average number of ions outside the sphere: 13.0
ETITLE: TS BOND ANGLE DIHED IMPRP ELECT VDW BOUNDARY MISC KINETIC TOTAL TEMP TOTAL2 TOTAL3 TEMPAVG PRESSURE GPRESSURE VOLUME PRESSAVG GPRESSAVG
ENERGY: 500 1829.7839 1083.7209 0.0000 0.0000 -26029.9433 2775.9898 0.0000 0.0000 5122.3735 -15218.0752 290.5264 -15133.7617 -15142.2480 291.4058 2984.2665 -115.6195 56984.3996 -306.0264 -304.0989
TCL: Step 600, average number of ions outside the sphere: 13.0
ETITLE: TS BOND ANGLE DIHED IMPRP ELECT VDW BOUNDARY MISC KINETIC TOTAL TEMP TOTAL2 TOTAL3 TEMPAVG PRESSURE GPRESSURE VOLUME PRESSAVG GPRESSAVG
ENERGY: 600 1808.8285 1053.2987 0.0000 0.0000 -25895.1390 2686.8786 0.0000 0.0000 5111.6487 -15234.4844 289.9181 -15151.8800 -15153.5304 291.7813 3078.6126 -448.3468 56984.3996 -261.4302 -265.9475
TCL: Step 700, average number of ions outside the sphere: 13.0
ETITLE: TS BOND ANGLE DIHED IMPRP ELECT VDW BOUNDARY MISC KINETIC TOTAL TEMP TOTAL2 TOTAL3 TEMPAVG PRESSURE GPRESSURE VOLUME PRESSAVG GPRESSAVG
ENERGY: 700 1824.8697 1094.7293 0.0000 0.0000 -26049.4297 2753.6696 0.0000 0.0000 5140.2180 -15235.9430 291.5385 -15152.7441 -15157.6086 291.4945 3132.7305 -270.9680 56984.3996 -424.0235 -422.5589
TCL: Step 800, average number of ions outside the sphere: 13.0
ETITLE: TS BOND ANGLE DIHED IMPRP ELECT VDW BOUNDARY MISC KINETIC TOTAL TEMP TOTAL2 TOTAL3 TEMPAVG PRESSURE GPRESSURE VOLUME PRESSAVG GPRESSAVG
ENERGY: 800 1812.8156 1112.1516 0.0000 0.0000 -25911.7539 2690.9301 0.0000 0.0000 5067.0030 -15228.8537 287.3860 -15145.6703 -15150.3685 290.6258 2741.7043 -429.8176 56984.3996 -653.8772 -661.2122
TCL: Step 900, average number of ions outside the sphere: 13.0
ETITLE: TS BOND ANGLE DIHED IMPRP ELECT VDW BOUNDARY MISC KINETIC TOTAL TEMP TOTAL2 TOTAL3 TEMPAVG PRESSURE GPRESSURE VOLUME PRESSAVG GPRESSAVG
ENERGY: 900 1827.2714 1029.4617 0.0000 0.0000 -26053.7471 2770.7817 0.0000 0.0000 5201.7472 -15224.4851 295.0283 -15141.0191 -15145.1028 291.7279 3094.4999 -134.8802 56984.3996 -191.5710 -184.8127
TCL: Step 1000, average number of ions outside the sphere: 13.0
ETITLE: TS BOND ANGLE DIHED IMPRP ELECT VDW BOUNDARY MISC KINETIC TOTAL TEMP TOTAL2 TOTAL3 TEMPAVG PRESSURE GPRESSURE VOLUME PRESSAVG GPRESSAVG
ENERGY: 1000 1758.2156 1096.9999 0.0000 0.0000 -26042.7892 2818.5558 0.0000 0.0000 5173.6531 -15195.3648 293.4348 -15114.1448 -15109.3723 291.6804 3515.4023 174.8876 56984.3996 -104.6105 -103.7489
TCL: Step 1100, average number of ions outside the sphere: 12.66
ETITLE: TS BOND ANGLE DIHED IMPRP ELECT VDW BOUNDARY MISC KINETIC TOTAL TEMP TOTAL2 TOTAL3 TEMPAVG PRESSURE GPRESSURE VOLUME PRESSAVG GPRESSAVG
ENERGY: 1100 1811.7968 1075.7617 0.0000 0.0000 -26064.4394 2792.7678 0.0000 0.0000 5207.3205 -15176.7924 295.3444 -15092.7968 -15098.2301 292.4770 3641.8727 19.7415 56984.3996 52.1862 48.1562
TCL: Step 1200, average number of ions outside the sphere: 12.0
ETITLE: TS BOND ANGLE DIHED IMPRP ELECT VDW BOUNDARY MISC KINETIC TOTAL TEMP TOTAL2 TOTAL3 TEMPAVG PRESSURE GPRESSURE VOLUME PRESSAVG GPRESSAVG
ENERGY: 1200 1809.5795 1061.4875 0.0000 0.0000 -26006.5946 2733.2043 0.0000 0.0000 5250.6968 -15151.6265 297.8045 -15067.8890 -15072.7791 293.7451 3606.5947 -209.8482 56984.3996 -34.9458 -38.9406
TCL: Step 1300, average number of ions outside the sphere: 12.0
ETITLE: TS BOND ANGLE DIHED IMPRP ELECT VDW BOUNDARY MISC KINETIC TOTAL TEMP TOTAL2 TOTAL3 TEMPAVG PRESSURE GPRESSURE VOLUME PRESSAVG GPRESSAVG
ENERGY: 1300 1755.6168 1072.7911 0.0000 0.0000 -25881.7517 2768.9287 0.0000 0.0000 5167.3585 -15117.0567 293.0778 -15034.1653 -15035.3272 292.8933 3709.8065 83.6022 56984.3996 104.6921 104.1237
TCL: Step 1400, average number of ions outside the sphere: 12.0
ETITLE: TS BOND ANGLE DIHED IMPRP ELECT VDW BOUNDARY MISC KINETIC TOTAL TEMP TOTAL2 TOTAL3 TEMPAVG PRESSURE GPRESSURE VOLUME PRESSAVG GPRESSAVG
ENERGY: 1400 1793.0122 1074.8637 0.0000 0.0000 -25970.7406 2821.7831 0.0000 0.0000 5182.6944 -15098.3873 293.9476 -15014.2005 -15020.8303 295.0392 4099.2542 312.0302 56984.3996 47.7892 44.1642
TCL: Step 1500, average number of ions outside the sphere: 12.0
ETITLE: TS BOND ANGLE DIHED IMPRP ELECT VDW BOUNDARY MISC KINETIC TOTAL TEMP TOTAL2 TOTAL3 TEMPAVG PRESSURE GPRESSURE VOLUME PRESSAVG GPRESSAVG
ENERGY: 1500 1775.3145 1085.4149 0.0000 0.0000 -25900.1466 2738.1234 0.0000 0.0000 5215.6713 -15085.6225 295.8180 -15001.2923 -15008.0450 294.9800 3775.1573 -77.9465 56984.3996 144.6251 145.2963
TCL: Step 1600, average number of ions outside the sphere: 12.0
ETITLE: TS BOND ANGLE DIHED IMPRP ELECT VDW BOUNDARY MISC KINETIC TOTAL TEMP TOTAL2 TOTAL3 TEMPAVG PRESSURE GPRESSURE VOLUME PRESSAVG GPRESSAVG
ENERGY: 1600 1706.8150 1132.9369 0.0000 0.0000 -25936.1531 2800.8494 0.0000 0.0000 5195.6755 -15099.8763 294.6839 -15018.1346 -15015.7150 294.5444 4552.3683 203.3055 56984.3996 73.0174 66.8528
TCL: Step 1700, average number of ions outside the sphere: 13.0
ETITLE: TS BOND ANGLE DIHED IMPRP ELECT VDW BOUNDARY MISC KINETIC TOTAL TEMP TOTAL2 TOTAL3 TEMPAVG PRESSURE GPRESSURE VOLUME PRESSAVG GPRESSAVG
ENERGY: 1700 1767.7052 1046.3761 0.0000 0.0000 -25942.8169 2790.4094 0.0000 0.0000 5259.5179 -15078.8084 298.3049 -14995.0265 -15001.0108 294.3739 4566.6778 221.0114 56984.3996 -91.3141 -92.8628
TCL: Step 1800, average number of ions outside the sphere: 12.95
ETITLE: TS BOND ANGLE DIHED IMPRP ELECT VDW BOUNDARY MISC KINETIC TOTAL TEMP TOTAL2 TOTAL3 TEMPAVG PRESSURE GPRESSURE VOLUME PRESSAVG GPRESSAVG
ENERGY: 1800 1775.3067 1134.5346 0.0000 0.0000 -25996.8009 2817.8498 0.0000 0.0000 5172.8032 -15096.3065 293.3866 -15012.1471 -15018.5907 296.5627 3923.6468 278.8005 56984.3996 76.1486 80.7357
TCL: Step 1900, average number of ions outside the sphere: 12.0
ETITLE: TS BOND ANGLE DIHED IMPRP ELECT VDW BOUNDARY MISC KINETIC TOTAL TEMP TOTAL2 TOTAL3 TEMPAVG PRESSURE GPRESSURE VOLUME PRESSAVG GPRESSAVG
ENERGY: 1900 1774.1414 1079.9007 0.0000 0.0000 -25803.7572 2732.2371 0.0000 0.0000 5135.6681 -15081.8098 291.2804 -14999.1668 -15000.2318 292.9691 3626.7610 115.2540 56984.3996 180.7604 180.7569
TCL: Step 2000, average number of ions outside the sphere: 13.0
ETITLE: TS BOND ANGLE DIHED IMPRP ELECT VDW BOUNDARY MISC KINETIC TOTAL TEMP TOTAL2 TOTAL3 TEMPAVG PRESSURE GPRESSURE VOLUME PRESSAVG GPRESSAVG
ENERGY: 2000 1813.5457 1065.8163 0.0000 0.0000 -25838.7423 2726.5945 0.0000 0.0000 5162.6616 -15070.1243 292.8114 -14986.0081 -14993.1846 293.9244 3356.1499 34.1916 56984.3996 -102.5799 -102.8834
TCL: Step 2100, average number of ions outside the sphere: 13.0
ETITLE: TS BOND ANGLE DIHED IMPRP ELECT VDW BOUNDARY MISC KINETIC TOTAL TEMP TOTAL2 TOTAL3 TEMPAVG PRESSURE GPRESSURE VOLUME PRESSAVG GPRESSAVG
ENERGY: 2100 1799.8163 1089.3751 0.0000 0.0000 -26006.8928 2837.1184 0.0000 0.0000 5192.7798 -15087.8033 294.5197 -15003.3500 -15011.5669 294.3506 3937.8486 381.1381 56984.3996 212.4962 217.9605
TCL: Step 2200, average number of ions outside the sphere: 13.0
ETITLE: TS BOND ANGLE DIHED IMPRP ELECT VDW BOUNDARY MISC KINETIC TOTAL TEMP TOTAL2 TOTAL3 TEMPAVG PRESSURE GPRESSURE VOLUME PRESSAVG GPRESSAVG
ENERGY: 2200 1807.5930 1082.4726 0.0000 0.0000 -25908.4550 2711.4822 0.0000 0.0000 5213.6198 -15093.2875 295.7016 -15010.9155 -15011.6002 294.5123 3140.3986 -302.4382 56984.3996 -16.2391 -20.7947
TCL: Step 2300, average number of ions outside the sphere: 13.0
ETITLE: TS BOND ANGLE DIHED IMPRP ELECT VDW BOUNDARY MISC KINETIC TOTAL TEMP TOTAL2 TOTAL3 TEMPAVG PRESSURE GPRESSURE VOLUME PRESSAVG GPRESSAVG
ENERGY: 2300 1820.2468 1067.9277 0.0000 0.0000 -25922.0717 2759.5147 0.0000 0.0000 5193.5904 -15080.7921 294.5656 -14997.2799 -15002.3866 293.7316 3300.0622 -6.8492 56984.3996 -155.9988 -156.3484
TCL: Step 2400, average number of ions outside the sphere: 12.82
ETITLE: TS BOND ANGLE DIHED IMPRP ELECT VDW BOUNDARY MISC KINETIC TOTAL TEMP TOTAL2 TOTAL3 TEMPAVG PRESSURE GPRESSURE VOLUME PRESSAVG GPRESSAVG
ENERGY: 2400 1774.2135 1008.5360 0.0000 0.0000 -25744.9204 2698.7776 0.0000 0.0000 5231.9095 -15031.4840 296.7390 -14948.4221 -14951.8059 295.4431 2972.9666 -146.8967 56984.3996 -272.5347 -266.5175
TCL: Step 2500, average number of ions outside the sphere: 12.0
ETITLE: TS BOND ANGLE DIHED IMPRP ELECT VDW BOUNDARY MISC KINETIC TOTAL TEMP TOTAL2 TOTAL3 TEMPAVG PRESSURE GPRESSURE VOLUME PRESSAVG GPRESSAVG
ENERGY: 2500 1806.3715 1089.5638 0.0000 0.0000 -25967.2667 2776.4397 0.0000 0.0000 5264.3959 -15030.4958 298.5815 -14947.2986 -14951.0644 296.7427 3218.5421 90.5655 56984.3996 -4.9101 0.7217
TCL: Step 2600, average number of ions outside the sphere: 12.0
ETITLE: TS BOND ANGLE DIHED IMPRP ELECT VDW BOUNDARY MISC KINETIC TOTAL TEMP TOTAL2 TOTAL3 TEMPAVG PRESSURE GPRESSURE VOLUME PRESSAVG GPRESSAVG
ENERGY: 2600 1783.2986 1113.1597 0.0000 0.0000 -25852.2878 2681.3311 0.0000 0.0000 5240.0798 -15034.4185 297.2024 -14952.9045 -14951.1222 295.7482 3101.6208 -343.0156 56984.3996 -27.0653 -32.8966
TCL: Step 2700, average number of ions outside the sphere: 12.0
ETITLE: TS BOND ANGLE DIHED IMPRP ELECT VDW BOUNDARY MISC KINETIC TOTAL TEMP TOTAL2 TOTAL3 TEMPAVG PRESSURE GPRESSURE VOLUME PRESSAVG GPRESSAVG
ENERGY: 2700 1786.0918 1054.9587 0.0000 0.0000 -25774.1942 2662.3404 0.0000 0.0000 5229.9555 -15040.8479 296.6282 -14959.7506 -14956.6539 295.3215 3063.7377 -328.6373 56984.3996 -215.8629 -224.2781
TCL: Step 2800, average number of ions outside the sphere: 12.0
ETITLE: TS BOND ANGLE DIHED IMPRP ELECT VDW BOUNDARY MISC KINETIC TOTAL TEMP TOTAL2 TOTAL3 TEMPAVG PRESSURE GPRESSURE VOLUME PRESSAVG GPRESSAVG
ENERGY: 2800 1782.0691 1052.9154 0.0000 0.0000 -25601.8797 2631.1187 0.0000 0.0000 5134.5972 -15001.1794 291.2197 -14918.7575 -14922.0610 296.1715 2788.9619 -300.4706 56984.3996 -308.1202 -301.8752
TCL: Step 2900, average number of ions outside the sphere: 12.0
ETITLE: TS BOND ANGLE DIHED IMPRP ELECT VDW BOUNDARY MISC KINETIC TOTAL TEMP TOTAL2 TOTAL3 TEMPAVG PRESSURE GPRESSURE VOLUME PRESSAVG GPRESSAVG
ENERGY: 2900 1787.1674 1053.2679 0.0000 0.0000 -25632.0208 2595.1292 0.0000 0.0000 5213.6158 -14982.8405 295.7014 -14901.6128 -14899.3873 294.3592 2493.8142 -438.2154 56984.3996 -399.6564 -395.8727
TCL: Step 3000, average number of ions outside the sphere: 12.0
ETITLE: TS BOND ANGLE DIHED IMPRP ELECT VDW BOUNDARY MISC KINETIC TOTAL TEMP TOTAL2 TOTAL3 TEMPAVG PRESSURE GPRESSURE VOLUME PRESSAVG GPRESSAVG
ENERGY: 3000 1804.0287 1083.0620 0.0000 0.0000 -25854.3942 2778.5951 0.0000 0.0000 5173.7202 -15014.9883 293.4387 -14933.6786 -14931.3307 296.0717 3233.3938 352.0396 56984.3996 -148.0634 -145.2604
TCL: Step 3100, average number of ions outside the sphere: 12.0
ETITLE: TS BOND ANGLE DIHED IMPRP ELECT VDW BOUNDARY MISC KINETIC TOTAL TEMP TOTAL2 TOTAL3 TEMPAVG PRESSURE GPRESSURE VOLUME PRESSAVG GPRESSAVG
ENERGY: 3100 1836.9698 1074.4449 0.0000 0.0000 -25864.1469 2708.3096 0.0000 0.0000 5245.9999 -14998.4227 297.5381 -14914.9990 -14919.6398 297.1969 2821.5506 -71.7765 56984.3996 39.2736 36.5639
TCL: Step 3200, average number of ions outside the sphere: 12.0
ETITLE: TS BOND ANGLE DIHED IMPRP ELECT VDW BOUNDARY MISC KINETIC TOTAL TEMP TOTAL2 TOTAL3 TEMPAVG PRESSURE GPRESSURE VOLUME PRESSAVG GPRESSAVG
ENERGY: 3200 1842.3615 1076.7065 0.0000 0.0000 -25824.8582 2709.6047 0.0000 0.0000 5194.0038 -15002.1817 294.5891 -14918.7045 -14923.9906 297.2941 2968.1500 -43.4691 56984.3996 -114.5615 -111.4300
TCL: Step 3300, average number of ions outside the sphere: 12.19
ETITLE: TS BOND ANGLE DIHED IMPRP ELECT VDW BOUNDARY MISC KINETIC TOTAL TEMP TOTAL2 TOTAL3 TEMPAVG PRESSURE GPRESSURE VOLUME PRESSAVG GPRESSAVG
ENERGY: 3300 1772.1992 1086.5074 0.0000 0.0000 -25837.6452 2765.0434 0.0000 0.0000 5203.3415 -15010.5537 295.1187 -14930.3473 -14923.3950 293.8908 3536.8598 228.8770 56984.3996 249.4882 246.4218
TCL: Step 3400, average number of ions outside the sphere: 12.3
ETITLE: TS BOND ANGLE DIHED IMPRP ELECT VDW BOUNDARY MISC KINETIC TOTAL TEMP TOTAL2 TOTAL3 TEMPAVG PRESSURE GPRESSURE VOLUME PRESSAVG GPRESSAVG
ENERGY: 3400 1815.5727 1069.8849 0.0000 0.0000 -25797.1912 2751.7600 0.0000 0.0000 5185.7092 -14974.2645 294.1186 -14888.8717 -14901.8362 296.5427 3725.9846 184.6734 56984.3996 97.0881 92.1242
TCL: Step 3500, average number of ions outside the sphere: 10.18
ETITLE: TS BOND ANGLE DIHED IMPRP ELECT VDW BOUNDARY MISC KINETIC TOTAL TEMP TOTAL2 TOTAL3 TEMPAVG PRESSURE GPRESSURE VOLUME PRESSAVG GPRESSAVG
ENERGY: 3500 1759.6855 1023.3255 0.0000 0.0000 -25638.9770 2609.7015 0.0000 0.0000 5252.7136 -14993.5509 297.9189 -14910.6727 -14913.8122 297.9173 3172.2580 -508.7712 56984.3996 -260.7843 -263.6096
TCL: Step 3600, average number of ions outside the sphere: 9.0
ETITLE: TS BOND ANGLE DIHED IMPRP ELECT VDW BOUNDARY MISC KINETIC TOTAL TEMP TOTAL2 TOTAL3 TEMPAVG PRESSURE GPRESSURE VOLUME PRESSAVG GPRESSAVG
ENERGY: 3600 1837.2861 1137.4831 0.0000 0.0000 -25856.5329 2712.0754 0.0000 0.0000 5223.0454 -14946.6429 296.2362 -14864.5064 -14865.9554 295.3792 3008.6209 -78.7153 56984.3996 -342.6183 -344.4982
TCL: Step 3700, average number of ions outside the sphere: 9.48
ETITLE: TS BOND ANGLE DIHED IMPRP ELECT VDW BOUNDARY MISC KINETIC TOTAL TEMP TOTAL2 TOTAL3 TEMPAVG PRESSURE GPRESSURE VOLUME PRESSAVG GPRESSAVG
ENERGY: 3700 1829.4250 1051.8621 0.0000 0.0000 -25783.9584 2723.2896 0.0000 0.0000 5251.6394 -14927.7422 297.8580 -14845.0191 -14847.9650 297.9866 2956.5556 127.5576 56984.3996 66.4504 67.5725
TCL: Step 3800, average number of ions outside the sphere: 8.18
ETITLE: TS BOND ANGLE DIHED IMPRP ELECT VDW BOUNDARY MISC KINETIC TOTAL TEMP TOTAL2 TOTAL3 TEMPAVG PRESSURE GPRESSURE VOLUME PRESSAVG GPRESSAVG
ENERGY: 3800 1795.7344 1077.6342 0.0000 0.0000 -25806.4566 2780.8698 0.0000 0.0000 5232.7116 -14919.5066 296.7845 -14836.8558 -14838.5352 296.8965 3292.7667 363.2430 56984.3996 281.1924 281.2985
TCL: Step 3900, average number of ions outside the sphere: 8.31
ETITLE: TS BOND ANGLE DIHED IMPRP ELECT VDW BOUNDARY MISC KINETIC TOTAL TEMP TOTAL2 TOTAL3 TEMPAVG PRESSURE GPRESSURE VOLUME PRESSAVG GPRESSAVG
ENERGY: 3900 1785.6259 1050.2652 0.0000 0.0000 -25893.0825 2768.2083 0.0000 0.0000 5358.5843 -14930.3989 303.9236 -14849.4805 -14843.7220 299.2737 3232.0269 184.5076 56984.3996 317.0245 315.7063
TCL: Step 4000, average number of ions outside the sphere: 8.74
