Info: SIMULATION PARAMETERS:
Info: TIMESTEP               1
Info: NUMBER OF STEPS        25000
Info: STEPS PER CYCLE        20
Info: PERIODIC CELL BASIS 1  38.4815 0 0
Info: PERIODIC CELL BASIS 2  0 38.4815 0
Info: PERIODIC CELL BASIS 3  0 0 38.4815
Info: PERIODIC CELL CENTER   0 0 0
Info: WRAPPING ALL CLUSTERS AROUND PERIODIC BOUNDARIES ON OUTPUT.
Info: WRAPPING TO IMAGE NEAREST TO PERIODIC CELL CENTER.
Info: FIRST LDB TIMESTEP     100
Info: HOM BACKGROUND SCALING 1
Info: PME BACKGROUND SCALING 1
Info: MAX SELF PARTITIONS    50
Info: MAX PAIR PARTITIONS    20
Info: SELF PARTITION ATOMS   125
Info: PAIR PARTITION ATOMS   200
Info: PAIR2 PARTITION ATOMS  400
Info: MIN ATOMS PER PATCH    100
Info: VELOCITY FILE          ./eq03.waterbox40-0.2M.restart.vel
Info: CENTER OF MASS MOVING INITIALLY? NO
Info: DIELECTRIC             1
Info: EXCLUDE                SCALED ONE-FOUR
Info: 1-4 SCALE FACTOR       1
Info: DCD FILENAME           ./eq04.concentrateIons.dcd
Info: DCD FREQUENCY          100
Info: DCD FIRST STEP         100
Info: DCD FILE WILL CONTAIN UNIT CELL DATA
Info: XST FILENAME           ./eq04.concentrateIons.xst
Info: XST FREQUENCY          100
Info: NO VELOCITY DCD OUTPUT
Info: OUTPUT FILENAME        ./eq04.concentrateIons
Info: BINARY OUTPUT FILES WILL BE USED
Info: RESTART FILENAME       ./eq04.concentrateIons.restart
Info: RESTART FREQUENCY      100
Info: BINARY RESTART FILES WILL BE USED
Info: SWITCHING ACTIVE
Info: SWITCHING ON           10
Info: SWITCHING OFF          12
Info: PAIRLIST DISTANCE      14
Info: PAIRLIST SHRINK RATE   0.01
Info: PAIRLIST GROW RATE     0.01
Info: PAIRLIST TRIGGER       0.3
Info: PAIRLISTS PER CYCLE    2
Info: PAIRLISTS ENABLED
Info: MARGIN                 3
Info: HYDROGEN GROUP CUTOFF  2.5
Info: PATCH DIMENSION        19.5
Info: ENERGY OUTPUT STEPS    100
Info: CROSSTERM ENERGY INCLUDED IN DIHEDRAL
Info: TIMING OUTPUT STEPS    100
Info: TCL BOUNDARY FORCES ACTIVE
Info: TCL BOUNDARY FORCES SCRIPT
Info: TCL BOUNDARY FORCES ARGS
Info: LANGEVIN DYNAMICS ACTIVE
Info: LANGEVIN TEMPERATURE   295
Info: LANGEVIN DAMPING COEFFICIENT IS 1 INVERSE PS
Info: LANGEVIN DYNAMICS NOT APPLIED TO HYDROGENS
Info: PARTICLE MESH EWALD (PME) ACTIVE
Info: PME TOLERANCE               1e-06
Info: PME EWALD COEFFICIENT       0.257952
Info: PME INTERPOLATION ORDER     4
Info: PME GRID DIMENSIONS         32 32 32
Info: PME MAXIMUM GRID SPACING    1.5
Info: FULL ELECTROSTATIC EVALUATION FREQUENCY      4
Info: USING VERLET I (r-RESPA) MTS SCHEME.
Info: C1 SPLITTING OF LONG RANGE ELECTROSTATICS
Info: PLACING ATOMS IN PATCHES BY HYDROGEN GROUPS
Info: NONBONDED FORCES EVALUATED EVERY 2 STEPS
Info: RANDOM NUMBER SEED     1163197009
Info: USE HYDROGEN BONDS?    NO
Info: COORDINATE PDB         ./waterbox40-0.2M.pdb
Info: STRUCTURE FILE         ./waterbox40-0.2M.psf
Info: PARAMETER file: CHARMM format!
Info: PARAMETERS             ./par_all27_prot_na.inp
Info: USING ARITHMETIC MEAN TO COMBINE L-J SIGMA PARAMETERS
Info: BINARY COORDINATES     ./eq03.waterbox40-0.2M.restart.coor
Info: SUMMARY OF PARAMETERS:
Info: 250 BONDS
Info: 622 ANGLES
Info: 1049 DIHEDRAL
Info: 73 IMPROPER
Info: 0 CROSSTERM
Info: 130 VDW
Info: 0 VDW_PAIRS
Info: STRUCTURE SUMMARY:
Info: 5915 ATOMS
Info: 3934 BONDS
Info: 1967 ANGLES
Info: 0 DIHEDRALS
Info: 0 IMPROPERS
Info: 0 CROSSTERMS
Info: 0 EXCLUSIONS
Info: 17745 DEGREES OF FREEDOM
Info: 1981 HYDROGEN GROUPS
Info: TOTAL MASS = 35958.2 amu
Info: TOTAL CHARGE = 0 e
Info: REMOVING COM VELOCITY 0.0492395 0.0480694 0.0729626
Info: NONBONDED TABLE R-SQUARED SPACING: 0.0625
Info: NONBONDED TABLE SIZE: 769 POINTS
ETITLE: TS BOND ANGLE DIHED IMPRP ELECT VDW BOUNDARY MISC KINETIC TOTAL TEMP TOTAL2 TOTAL3 TEMPAVG PRESSURE GPRESSURE VOLUME PRESSAVG GPRESSAVG
ENERGY: 0 1822.0932 1115.9292 0.0000 0.0000 -26125.2310 2834.9157 0.0000 0.0000 5065.9007 -15286.3920 287.3234 -15203.9062 -15203.9062 287.3234 2785.1780 112.0509 56984.3996 2785.1780 112.0509
ENERGY: 5000 1819.5411 1111.5277 0.0000 0.0000 -25971.8099 2873.4871 0.0000 0.0000 5205.6142 -14961.6398 295.2476 -14879.5239 -14882.9673 299.3396 3152.6433 721.1907 56984.3996 605.2193 606.6814
ENERGY: 10000 1787.6558 1107.7559 0.0000 0.0000 -25907.8556 2767.1751 0.0000 0.0000 5266.3009 -14978.9679 298.6896 -14896.6028 -14898.3016 297.5699 3321.5180 217.0016 56984.3996 55.5544 59.6463
ENERGY: 15000 1829.7351 1090.9785 0.0000 0.0000 -25969.5902 2746.7318 0.0000 0.0000 5245.3846 -15056.7602 297.5033 -14977.2908 -14969.2920 294.9219 1875.1261 1.8413 56984.3996 226.9963 226.2897
ENERGY: 20000 1791.0500 1091.4690 0.0000 0.0000 -26115.2018 2782.5689 0.0000 0.0000 5209.6300 -15240.4839 295.4754 -15157.9769 -15161.8079 290.8987 3062.5972 -89.7359 56984.3996 -159.0434 -158.1564
ENERGY: 25000 1768.8691 1052.6816 0.0000 0.0000 -25874.3799 2766.6324 0.0000 0.0000 5152.8544 -15133.3424 292.2552 -15050.1666 -15053.6856 294.5336 3554.7406 98.6790 56984.3996 199.8317 202.5288
